
---------- Begin Simulation Statistics ----------
simSeconds                                   0.014423                       # Number of seconds simulated (Second)
simTicks                                  14423203158                       # Number of ticks simulated (Tick)
finalTick                                276964745107573                       # Number of ticks from beginning of simulation (restored from checkpoints and never reset) (Tick)
simFreq                                  1000000000000                       # The number of ticks per simulated second ((Tick/Second))
hostSeconds                                    320.37                       # Real time elapsed on the host (Second)
hostTickRate                                 45020801                       # The number of ticks simulated per host second (ticks/s) ((Tick/Second))
hostMemory                                    4370976                       # Number of bytes of host memory used (Byte)
simInsts                                 1646055362346                       # Number of instructions simulated (Count)
simOps                                   1646172500461                       # Number of ops (including micro ops) simulated (Count)
hostInstRate                               5138019086                       # Simulator instruction rate (inst/s) ((Count/Second))
hostOpRate                                 5138384258                       # Simulator op (including micro ops) rate (op/s) ((Count/Second))
board.cache_hierarchy.l1d-cache-0.demandHits::processor.switch2.core.data     15951720                       # number of demand (read+write) hits (Count)
board.cache_hierarchy.l1d-cache-0.demandHits::total     15951720                       # number of demand (read+write) hits (Count)
board.cache_hierarchy.l1d-cache-0.overallHits::processor.switch2.core.data     15951720                       # number of overall hits (Count)
board.cache_hierarchy.l1d-cache-0.overallHits::total     15951720                       # number of overall hits (Count)
board.cache_hierarchy.l1d-cache-0.demandMisses::processor.switch2.core.data       851553                       # number of demand (read+write) misses (Count)
board.cache_hierarchy.l1d-cache-0.demandMisses::total       851553                       # number of demand (read+write) misses (Count)
board.cache_hierarchy.l1d-cache-0.overallMisses::processor.switch2.core.data       851553                       # number of overall misses (Count)
board.cache_hierarchy.l1d-cache-0.overallMisses::total       851553                       # number of overall misses (Count)
board.cache_hierarchy.l1d-cache-0.demandMissLatency::processor.switch2.core.data   2967278085                       # number of demand (read+write) miss ticks (Tick)
board.cache_hierarchy.l1d-cache-0.demandMissLatency::total   2967278085                       # number of demand (read+write) miss ticks (Tick)
board.cache_hierarchy.l1d-cache-0.overallMissLatency::processor.switch2.core.data   2967278085                       # number of overall miss ticks (Tick)
board.cache_hierarchy.l1d-cache-0.overallMissLatency::total   2967278085                       # number of overall miss ticks (Tick)
board.cache_hierarchy.l1d-cache-0.demandAccesses::processor.switch2.core.data     16803273                       # number of demand (read+write) accesses (Count)
board.cache_hierarchy.l1d-cache-0.demandAccesses::total     16803273                       # number of demand (read+write) accesses (Count)
board.cache_hierarchy.l1d-cache-0.overallAccesses::processor.switch2.core.data     16803273                       # number of overall (read+write) accesses (Count)
board.cache_hierarchy.l1d-cache-0.overallAccesses::total     16803273                       # number of overall (read+write) accesses (Count)
board.cache_hierarchy.l1d-cache-0.demandMissRate::processor.switch2.core.data     0.050678                       # miss rate for demand accesses (Ratio)
board.cache_hierarchy.l1d-cache-0.demandMissRate::total     0.050678                       # miss rate for demand accesses (Ratio)
board.cache_hierarchy.l1d-cache-0.overallMissRate::processor.switch2.core.data     0.050678                       # miss rate for overall accesses (Ratio)
board.cache_hierarchy.l1d-cache-0.overallMissRate::total     0.050678                       # miss rate for overall accesses (Ratio)
board.cache_hierarchy.l1d-cache-0.demandAvgMissLatency::processor.switch2.core.data  3484.548918                       # average overall miss latency in ticks ((Tick/Count))
board.cache_hierarchy.l1d-cache-0.demandAvgMissLatency::total  3484.548918                       # average overall miss latency in ticks ((Tick/Count))
board.cache_hierarchy.l1d-cache-0.overallAvgMissLatency::processor.switch2.core.data  3484.548918                       # average overall miss latency ((Tick/Count))
board.cache_hierarchy.l1d-cache-0.overallAvgMissLatency::total  3484.548918                       # average overall miss latency ((Tick/Count))
board.cache_hierarchy.l1d-cache-0.blockedCycles::no_mshrs            0                       # number of cycles access was blocked (Cycle)
board.cache_hierarchy.l1d-cache-0.blockedCycles::no_targets            0                       # number of cycles access was blocked (Cycle)
board.cache_hierarchy.l1d-cache-0.blockedCauses::no_mshrs            0                       # number of times access was blocked (Count)
board.cache_hierarchy.l1d-cache-0.blockedCauses::no_targets            0                       # number of times access was blocked (Count)
board.cache_hierarchy.l1d-cache-0.avgBlocked::no_mshrs          nan                       # average number of cycles each access was blocked ((Cycle/Count))
board.cache_hierarchy.l1d-cache-0.avgBlocked::no_targets          nan                       # average number of cycles each access was blocked ((Cycle/Count))
board.cache_hierarchy.l1d-cache-0.writebacks::writebacks       116724                       # number of writebacks (Count)
board.cache_hierarchy.l1d-cache-0.writebacks::total       116724                       # number of writebacks (Count)
board.cache_hierarchy.l1d-cache-0.demandMshrHits::processor.switch2.core.data       438342                       # number of demand (read+write) MSHR hits (Count)
board.cache_hierarchy.l1d-cache-0.demandMshrHits::total       438342                       # number of demand (read+write) MSHR hits (Count)
board.cache_hierarchy.l1d-cache-0.overallMshrHits::processor.switch2.core.data       438342                       # number of overall MSHR hits (Count)
board.cache_hierarchy.l1d-cache-0.overallMshrHits::total       438342                       # number of overall MSHR hits (Count)
board.cache_hierarchy.l1d-cache-0.demandMshrMisses::processor.switch2.core.data       413211                       # number of demand (read+write) MSHR misses (Count)
board.cache_hierarchy.l1d-cache-0.demandMshrMisses::total       413211                       # number of demand (read+write) MSHR misses (Count)
board.cache_hierarchy.l1d-cache-0.overallMshrMisses::processor.switch2.core.data       413211                       # number of overall MSHR misses (Count)
board.cache_hierarchy.l1d-cache-0.overallMshrMisses::total       413211                       # number of overall MSHR misses (Count)
board.cache_hierarchy.l1d-cache-0.demandMshrMissLatency::processor.switch2.core.data   1335221775                       # number of demand (read+write) MSHR miss ticks (Tick)
board.cache_hierarchy.l1d-cache-0.demandMshrMissLatency::total   1335221775                       # number of demand (read+write) MSHR miss ticks (Tick)
board.cache_hierarchy.l1d-cache-0.overallMshrMissLatency::processor.switch2.core.data   1335221775                       # number of overall MSHR miss ticks (Tick)
board.cache_hierarchy.l1d-cache-0.overallMshrMissLatency::total   1335221775                       # number of overall MSHR miss ticks (Tick)
board.cache_hierarchy.l1d-cache-0.demandMshrMissRate::processor.switch2.core.data     0.024591                       # mshr miss ratio for demand accesses (Ratio)
board.cache_hierarchy.l1d-cache-0.demandMshrMissRate::total     0.024591                       # mshr miss ratio for demand accesses (Ratio)
board.cache_hierarchy.l1d-cache-0.overallMshrMissRate::processor.switch2.core.data     0.024591                       # mshr miss ratio for overall accesses (Ratio)
board.cache_hierarchy.l1d-cache-0.overallMshrMissRate::total     0.024591                       # mshr miss ratio for overall accesses (Ratio)
board.cache_hierarchy.l1d-cache-0.demandAvgMshrMissLatency::processor.switch2.core.data  3231.331632                       # average overall mshr miss latency ((Tick/Count))
board.cache_hierarchy.l1d-cache-0.demandAvgMshrMissLatency::total  3231.331632                       # average overall mshr miss latency ((Tick/Count))
board.cache_hierarchy.l1d-cache-0.overallAvgMshrMissLatency::processor.switch2.core.data  3231.331632                       # average overall mshr miss latency ((Tick/Count))
board.cache_hierarchy.l1d-cache-0.overallAvgMshrMissLatency::total  3231.331632                       # average overall mshr miss latency ((Tick/Count))
board.cache_hierarchy.l1d-cache-0.replacements       413211                       # number of replacements (Count)
board.cache_hierarchy.l1d-cache-0.ReadReq.hits::processor.switch2.core.data     11975923                       # number of ReadReq hits (Count)
board.cache_hierarchy.l1d-cache-0.ReadReq.hits::total     11975923                       # number of ReadReq hits (Count)
board.cache_hierarchy.l1d-cache-0.ReadReq.misses::processor.switch2.core.data       835089                       # number of ReadReq misses (Count)
board.cache_hierarchy.l1d-cache-0.ReadReq.misses::total       835089                       # number of ReadReq misses (Count)
board.cache_hierarchy.l1d-cache-0.ReadReq.missLatency::processor.switch2.core.data   2923910163                       # number of ReadReq miss ticks (Tick)
board.cache_hierarchy.l1d-cache-0.ReadReq.missLatency::total   2923910163                       # number of ReadReq miss ticks (Tick)
board.cache_hierarchy.l1d-cache-0.ReadReq.accesses::processor.switch2.core.data     12811012                       # number of ReadReq accesses(hits+misses) (Count)
board.cache_hierarchy.l1d-cache-0.ReadReq.accesses::total     12811012                       # number of ReadReq accesses(hits+misses) (Count)
board.cache_hierarchy.l1d-cache-0.ReadReq.missRate::processor.switch2.core.data     0.065185                       # miss rate for ReadReq accesses (Ratio)
board.cache_hierarchy.l1d-cache-0.ReadReq.missRate::total     0.065185                       # miss rate for ReadReq accesses (Ratio)
board.cache_hierarchy.l1d-cache-0.ReadReq.avgMissLatency::processor.switch2.core.data  3501.315624                       # average ReadReq miss latency ((Tick/Count))
board.cache_hierarchy.l1d-cache-0.ReadReq.avgMissLatency::total  3501.315624                       # average ReadReq miss latency ((Tick/Count))
board.cache_hierarchy.l1d-cache-0.ReadReq.mshrHits::processor.switch2.core.data       438223                       # number of ReadReq MSHR hits (Count)
board.cache_hierarchy.l1d-cache-0.ReadReq.mshrHits::total       438223                       # number of ReadReq MSHR hits (Count)
board.cache_hierarchy.l1d-cache-0.ReadReq.mshrMisses::processor.switch2.core.data       396866                       # number of ReadReq MSHR misses (Count)
board.cache_hierarchy.l1d-cache-0.ReadReq.mshrMisses::total       396866                       # number of ReadReq MSHR misses (Count)
board.cache_hierarchy.l1d-cache-0.ReadReq.mshrMissLatency::processor.switch2.core.data   1297499535                       # number of ReadReq MSHR miss ticks (Tick)
board.cache_hierarchy.l1d-cache-0.ReadReq.mshrMissLatency::total   1297499535                       # number of ReadReq MSHR miss ticks (Tick)
board.cache_hierarchy.l1d-cache-0.ReadReq.mshrMissRate::processor.switch2.core.data     0.030979                       # mshr miss rate for ReadReq accesses (Ratio)
board.cache_hierarchy.l1d-cache-0.ReadReq.mshrMissRate::total     0.030979                       # mshr miss rate for ReadReq accesses (Ratio)
board.cache_hierarchy.l1d-cache-0.ReadReq.avgMshrMissLatency::processor.switch2.core.data  3269.364307                       # average ReadReq mshr miss latency ((Tick/Count))
board.cache_hierarchy.l1d-cache-0.ReadReq.avgMshrMissLatency::total  3269.364307                       # average ReadReq mshr miss latency ((Tick/Count))
board.cache_hierarchy.l1d-cache-0.WriteReq.hits::processor.switch2.core.data      3975797                       # number of WriteReq hits (Count)
board.cache_hierarchy.l1d-cache-0.WriteReq.hits::total      3975797                       # number of WriteReq hits (Count)
board.cache_hierarchy.l1d-cache-0.WriteReq.misses::processor.switch2.core.data        16464                       # number of WriteReq misses (Count)
board.cache_hierarchy.l1d-cache-0.WriteReq.misses::total        16464                       # number of WriteReq misses (Count)
board.cache_hierarchy.l1d-cache-0.WriteReq.missLatency::processor.switch2.core.data     43367922                       # number of WriteReq miss ticks (Tick)
board.cache_hierarchy.l1d-cache-0.WriteReq.missLatency::total     43367922                       # number of WriteReq miss ticks (Tick)
board.cache_hierarchy.l1d-cache-0.WriteReq.accesses::processor.switch2.core.data      3992261                       # number of WriteReq accesses(hits+misses) (Count)
board.cache_hierarchy.l1d-cache-0.WriteReq.accesses::total      3992261                       # number of WriteReq accesses(hits+misses) (Count)
board.cache_hierarchy.l1d-cache-0.WriteReq.missRate::processor.switch2.core.data     0.004124                       # miss rate for WriteReq accesses (Ratio)
board.cache_hierarchy.l1d-cache-0.WriteReq.missRate::total     0.004124                       # miss rate for WriteReq accesses (Ratio)
board.cache_hierarchy.l1d-cache-0.WriteReq.avgMissLatency::processor.switch2.core.data  2634.106050                       # average WriteReq miss latency ((Tick/Count))
board.cache_hierarchy.l1d-cache-0.WriteReq.avgMissLatency::total  2634.106050                       # average WriteReq miss latency ((Tick/Count))
board.cache_hierarchy.l1d-cache-0.WriteReq.mshrHits::processor.switch2.core.data          119                       # number of WriteReq MSHR hits (Count)
board.cache_hierarchy.l1d-cache-0.WriteReq.mshrHits::total          119                       # number of WriteReq MSHR hits (Count)
board.cache_hierarchy.l1d-cache-0.WriteReq.mshrMisses::processor.switch2.core.data        16345                       # number of WriteReq MSHR misses (Count)
board.cache_hierarchy.l1d-cache-0.WriteReq.mshrMisses::total        16345                       # number of WriteReq MSHR misses (Count)
board.cache_hierarchy.l1d-cache-0.WriteReq.mshrMissLatency::processor.switch2.core.data     37722240                       # number of WriteReq MSHR miss ticks (Tick)
board.cache_hierarchy.l1d-cache-0.WriteReq.mshrMissLatency::total     37722240                       # number of WriteReq MSHR miss ticks (Tick)
board.cache_hierarchy.l1d-cache-0.WriteReq.mshrMissRate::processor.switch2.core.data     0.004094                       # mshr miss rate for WriteReq accesses (Ratio)
board.cache_hierarchy.l1d-cache-0.WriteReq.mshrMissRate::total     0.004094                       # mshr miss rate for WriteReq accesses (Ratio)
board.cache_hierarchy.l1d-cache-0.WriteReq.avgMshrMissLatency::processor.switch2.core.data  2307.876415                       # average WriteReq mshr miss latency ((Tick/Count))
board.cache_hierarchy.l1d-cache-0.WriteReq.avgMshrMissLatency::total  2307.876415                       # average WriteReq mshr miss latency ((Tick/Count))
board.cache_hierarchy.l1d-cache-0.power_state.pwrStateResidencyTicks::UNDEFINED 276964745107573                       # Cumulative time (in ticks) in various power states (Tick)
board.cache_hierarchy.l1d-cache-0.tags.tagsInUse          512                       # Average ticks per tags in use ((Tick/Count))
board.cache_hierarchy.l1d-cache-0.tags.totalRefs     16514159                       # Total number of references to valid blocks. (Count)
board.cache_hierarchy.l1d-cache-0.tags.sampledRefs       413723                       # Sample count of references to valid blocks. (Count)
board.cache_hierarchy.l1d-cache-0.tags.avgRefs    39.915980                       # Average number of references to valid blocks. ((Count/Count))
board.cache_hierarchy.l1d-cache-0.tags.warmupTick            0                       # The tick when the warmup percentage was hit. (Tick)
board.cache_hierarchy.l1d-cache-0.tags.occupancies::processor.switch1.core.data     2.598746                       # Average occupied blocks per tick, per requestor ((Count/Tick))
board.cache_hierarchy.l1d-cache-0.tags.occupancies::processor.switch2.core.data   509.401254                       # Average occupied blocks per tick, per requestor ((Count/Tick))
board.cache_hierarchy.l1d-cache-0.tags.avgOccs::processor.switch1.core.data     0.005076                       # Average percentage of cache occupancy ((Ratio/Tick))
board.cache_hierarchy.l1d-cache-0.tags.avgOccs::processor.switch2.core.data     0.994924                       # Average percentage of cache occupancy ((Ratio/Tick))
board.cache_hierarchy.l1d-cache-0.tags.avgOccs::total            1                       # Average percentage of cache occupancy ((Ratio/Tick))
board.cache_hierarchy.l1d-cache-0.tags.occupanciesTaskId::1024          512                       # Occupied blocks per task id (Count)
board.cache_hierarchy.l1d-cache-0.tags.ageTaskId_1024::0          134                       # Occupied blocks per task id, per block age (Count)
board.cache_hierarchy.l1d-cache-0.tags.ageTaskId_1024::1          245                       # Occupied blocks per task id, per block age (Count)
board.cache_hierarchy.l1d-cache-0.tags.ageTaskId_1024::2          132                       # Occupied blocks per task id, per block age (Count)
board.cache_hierarchy.l1d-cache-0.tags.ageTaskId_1024::3            1                       # Occupied blocks per task id, per block age (Count)
board.cache_hierarchy.l1d-cache-0.tags.ratioOccsTaskId::1024            1                       # Ratio of occupied blocks and all blocks, per task id (Ratio)
board.cache_hierarchy.l1d-cache-0.tags.tagAccesses     67626303                       # Number of tag accesses (Count)
board.cache_hierarchy.l1d-cache-0.tags.dataAccesses     67626303                       # Number of data accesses (Count)
board.cache_hierarchy.l1d-cache-0.tags.power_state.pwrStateResidencyTicks::UNDEFINED 276964745107573                       # Cumulative time (in ticks) in various power states (Tick)
board.cache_hierarchy.l1i-cache-0.demandHits::processor.switch2.core.inst      5044888                       # number of demand (read+write) hits (Count)
board.cache_hierarchy.l1i-cache-0.demandHits::total      5044888                       # number of demand (read+write) hits (Count)
board.cache_hierarchy.l1i-cache-0.overallHits::processor.switch2.core.inst      5044888                       # number of overall hits (Count)
board.cache_hierarchy.l1i-cache-0.overallHits::total      5044888                       # number of overall hits (Count)
board.cache_hierarchy.l1i-cache-0.demandMisses::processor.switch2.core.inst            8                       # number of demand (read+write) misses (Count)
board.cache_hierarchy.l1i-cache-0.demandMisses::total            8                       # number of demand (read+write) misses (Count)
board.cache_hierarchy.l1i-cache-0.overallMisses::processor.switch2.core.inst            8                       # number of overall misses (Count)
board.cache_hierarchy.l1i-cache-0.overallMisses::total            8                       # number of overall misses (Count)
board.cache_hierarchy.l1i-cache-0.demandMissLatency::processor.switch2.core.inst       448551                       # number of demand (read+write) miss ticks (Tick)
board.cache_hierarchy.l1i-cache-0.demandMissLatency::total       448551                       # number of demand (read+write) miss ticks (Tick)
board.cache_hierarchy.l1i-cache-0.overallMissLatency::processor.switch2.core.inst       448551                       # number of overall miss ticks (Tick)
board.cache_hierarchy.l1i-cache-0.overallMissLatency::total       448551                       # number of overall miss ticks (Tick)
board.cache_hierarchy.l1i-cache-0.demandAccesses::processor.switch2.core.inst      5044896                       # number of demand (read+write) accesses (Count)
board.cache_hierarchy.l1i-cache-0.demandAccesses::total      5044896                       # number of demand (read+write) accesses (Count)
board.cache_hierarchy.l1i-cache-0.overallAccesses::processor.switch2.core.inst      5044896                       # number of overall (read+write) accesses (Count)
board.cache_hierarchy.l1i-cache-0.overallAccesses::total      5044896                       # number of overall (read+write) accesses (Count)
board.cache_hierarchy.l1i-cache-0.demandMissRate::processor.switch2.core.inst     0.000002                       # miss rate for demand accesses (Ratio)
board.cache_hierarchy.l1i-cache-0.demandMissRate::total     0.000002                       # miss rate for demand accesses (Ratio)
board.cache_hierarchy.l1i-cache-0.overallMissRate::processor.switch2.core.inst     0.000002                       # miss rate for overall accesses (Ratio)
board.cache_hierarchy.l1i-cache-0.overallMissRate::total     0.000002                       # miss rate for overall accesses (Ratio)
board.cache_hierarchy.l1i-cache-0.demandAvgMissLatency::processor.switch2.core.inst 56068.875000                       # average overall miss latency in ticks ((Tick/Count))
board.cache_hierarchy.l1i-cache-0.demandAvgMissLatency::total 56068.875000                       # average overall miss latency in ticks ((Tick/Count))
board.cache_hierarchy.l1i-cache-0.overallAvgMissLatency::processor.switch2.core.inst 56068.875000                       # average overall miss latency ((Tick/Count))
board.cache_hierarchy.l1i-cache-0.overallAvgMissLatency::total 56068.875000                       # average overall miss latency ((Tick/Count))
board.cache_hierarchy.l1i-cache-0.blockedCycles::no_mshrs            0                       # number of cycles access was blocked (Cycle)
board.cache_hierarchy.l1i-cache-0.blockedCycles::no_targets            0                       # number of cycles access was blocked (Cycle)
board.cache_hierarchy.l1i-cache-0.blockedCauses::no_mshrs            0                       # number of times access was blocked (Count)
board.cache_hierarchy.l1i-cache-0.blockedCauses::no_targets            0                       # number of times access was blocked (Count)
board.cache_hierarchy.l1i-cache-0.avgBlocked::no_mshrs          nan                       # average number of cycles each access was blocked ((Cycle/Count))
board.cache_hierarchy.l1i-cache-0.avgBlocked::no_targets          nan                       # average number of cycles each access was blocked ((Cycle/Count))
board.cache_hierarchy.l1i-cache-0.demandMshrHits::processor.switch2.core.inst            3                       # number of demand (read+write) MSHR hits (Count)
board.cache_hierarchy.l1i-cache-0.demandMshrHits::total            3                       # number of demand (read+write) MSHR hits (Count)
board.cache_hierarchy.l1i-cache-0.overallMshrHits::processor.switch2.core.inst            3                       # number of overall MSHR hits (Count)
board.cache_hierarchy.l1i-cache-0.overallMshrHits::total            3                       # number of overall MSHR hits (Count)
board.cache_hierarchy.l1i-cache-0.demandMshrMisses::processor.switch2.core.inst            5                       # number of demand (read+write) MSHR misses (Count)
board.cache_hierarchy.l1i-cache-0.demandMshrMisses::total            5                       # number of demand (read+write) MSHR misses (Count)
board.cache_hierarchy.l1i-cache-0.overallMshrMisses::processor.switch2.core.inst            5                       # number of overall MSHR misses (Count)
board.cache_hierarchy.l1i-cache-0.overallMshrMisses::total            5                       # number of overall MSHR misses (Count)
board.cache_hierarchy.l1i-cache-0.demandMshrMissLatency::processor.switch2.core.inst       342657                       # number of demand (read+write) MSHR miss ticks (Tick)
board.cache_hierarchy.l1i-cache-0.demandMshrMissLatency::total       342657                       # number of demand (read+write) MSHR miss ticks (Tick)
board.cache_hierarchy.l1i-cache-0.overallMshrMissLatency::processor.switch2.core.inst       342657                       # number of overall MSHR miss ticks (Tick)
board.cache_hierarchy.l1i-cache-0.overallMshrMissLatency::total       342657                       # number of overall MSHR miss ticks (Tick)
board.cache_hierarchy.l1i-cache-0.demandMshrMissRate::processor.switch2.core.inst     0.000001                       # mshr miss ratio for demand accesses (Ratio)
board.cache_hierarchy.l1i-cache-0.demandMshrMissRate::total     0.000001                       # mshr miss ratio for demand accesses (Ratio)
board.cache_hierarchy.l1i-cache-0.overallMshrMissRate::processor.switch2.core.inst     0.000001                       # mshr miss ratio for overall accesses (Ratio)
board.cache_hierarchy.l1i-cache-0.overallMshrMissRate::total     0.000001                       # mshr miss ratio for overall accesses (Ratio)
board.cache_hierarchy.l1i-cache-0.demandAvgMshrMissLatency::processor.switch2.core.inst 68531.400000                       # average overall mshr miss latency ((Tick/Count))
board.cache_hierarchy.l1i-cache-0.demandAvgMshrMissLatency::total 68531.400000                       # average overall mshr miss latency ((Tick/Count))
board.cache_hierarchy.l1i-cache-0.overallAvgMshrMissLatency::processor.switch2.core.inst 68531.400000                       # average overall mshr miss latency ((Tick/Count))
board.cache_hierarchy.l1i-cache-0.overallAvgMshrMissLatency::total 68531.400000                       # average overall mshr miss latency ((Tick/Count))
board.cache_hierarchy.l1i-cache-0.replacements            0                       # number of replacements (Count)
board.cache_hierarchy.l1i-cache-0.ReadReq.hits::processor.switch2.core.inst      5044888                       # number of ReadReq hits (Count)
board.cache_hierarchy.l1i-cache-0.ReadReq.hits::total      5044888                       # number of ReadReq hits (Count)
board.cache_hierarchy.l1i-cache-0.ReadReq.misses::processor.switch2.core.inst            8                       # number of ReadReq misses (Count)
board.cache_hierarchy.l1i-cache-0.ReadReq.misses::total            8                       # number of ReadReq misses (Count)
board.cache_hierarchy.l1i-cache-0.ReadReq.missLatency::processor.switch2.core.inst       448551                       # number of ReadReq miss ticks (Tick)
board.cache_hierarchy.l1i-cache-0.ReadReq.missLatency::total       448551                       # number of ReadReq miss ticks (Tick)
board.cache_hierarchy.l1i-cache-0.ReadReq.accesses::processor.switch2.core.inst      5044896                       # number of ReadReq accesses(hits+misses) (Count)
board.cache_hierarchy.l1i-cache-0.ReadReq.accesses::total      5044896                       # number of ReadReq accesses(hits+misses) (Count)
board.cache_hierarchy.l1i-cache-0.ReadReq.missRate::processor.switch2.core.inst     0.000002                       # miss rate for ReadReq accesses (Ratio)
board.cache_hierarchy.l1i-cache-0.ReadReq.missRate::total     0.000002                       # miss rate for ReadReq accesses (Ratio)
board.cache_hierarchy.l1i-cache-0.ReadReq.avgMissLatency::processor.switch2.core.inst 56068.875000                       # average ReadReq miss latency ((Tick/Count))
board.cache_hierarchy.l1i-cache-0.ReadReq.avgMissLatency::total 56068.875000                       # average ReadReq miss latency ((Tick/Count))
board.cache_hierarchy.l1i-cache-0.ReadReq.mshrHits::processor.switch2.core.inst            3                       # number of ReadReq MSHR hits (Count)
board.cache_hierarchy.l1i-cache-0.ReadReq.mshrHits::total            3                       # number of ReadReq MSHR hits (Count)
board.cache_hierarchy.l1i-cache-0.ReadReq.mshrMisses::processor.switch2.core.inst            5                       # number of ReadReq MSHR misses (Count)
board.cache_hierarchy.l1i-cache-0.ReadReq.mshrMisses::total            5                       # number of ReadReq MSHR misses (Count)
board.cache_hierarchy.l1i-cache-0.ReadReq.mshrMissLatency::processor.switch2.core.inst       342657                       # number of ReadReq MSHR miss ticks (Tick)
board.cache_hierarchy.l1i-cache-0.ReadReq.mshrMissLatency::total       342657                       # number of ReadReq MSHR miss ticks (Tick)
board.cache_hierarchy.l1i-cache-0.ReadReq.mshrMissRate::processor.switch2.core.inst     0.000001                       # mshr miss rate for ReadReq accesses (Ratio)
board.cache_hierarchy.l1i-cache-0.ReadReq.mshrMissRate::total     0.000001                       # mshr miss rate for ReadReq accesses (Ratio)
board.cache_hierarchy.l1i-cache-0.ReadReq.avgMshrMissLatency::processor.switch2.core.inst 68531.400000                       # average ReadReq mshr miss latency ((Tick/Count))
board.cache_hierarchy.l1i-cache-0.ReadReq.avgMshrMissLatency::total 68531.400000                       # average ReadReq mshr miss latency ((Tick/Count))
board.cache_hierarchy.l1i-cache-0.power_state.pwrStateResidencyTicks::UNDEFINED 276964745107573                       # Cumulative time (in ticks) in various power states (Tick)
board.cache_hierarchy.l1i-cache-0.tags.tagsInUse   127.389911                       # Average ticks per tags in use ((Tick/Count))
board.cache_hierarchy.l1i-cache-0.tags.totalRefs    295990578                       # Total number of references to valid blocks. (Count)
board.cache_hierarchy.l1i-cache-0.tags.sampledRefs          128                       # Sample count of references to valid blocks. (Count)
board.cache_hierarchy.l1i-cache-0.tags.avgRefs 2312426.390625                       # Average number of references to valid blocks. ((Count/Count))
board.cache_hierarchy.l1i-cache-0.tags.warmupTick            0                       # The tick when the warmup percentage was hit. (Tick)
board.cache_hierarchy.l1i-cache-0.tags.occupancies::processor.switch1.core.inst          123                       # Average occupied blocks per tick, per requestor ((Count/Tick))
board.cache_hierarchy.l1i-cache-0.tags.occupancies::processor.switch2.core.inst     4.389911                       # Average occupied blocks per tick, per requestor ((Count/Tick))
board.cache_hierarchy.l1i-cache-0.tags.avgOccs::processor.switch1.core.inst     0.240234                       # Average percentage of cache occupancy ((Ratio/Tick))
board.cache_hierarchy.l1i-cache-0.tags.avgOccs::processor.switch2.core.inst     0.008574                       # Average percentage of cache occupancy ((Ratio/Tick))
board.cache_hierarchy.l1i-cache-0.tags.avgOccs::total     0.248808                       # Average percentage of cache occupancy ((Ratio/Tick))
board.cache_hierarchy.l1i-cache-0.tags.occupanciesTaskId::1024          128                       # Occupied blocks per task id (Count)
board.cache_hierarchy.l1i-cache-0.tags.ageTaskId_1024::3            1                       # Occupied blocks per task id, per block age (Count)
board.cache_hierarchy.l1i-cache-0.tags.ageTaskId_1024::4          127                       # Occupied blocks per task id, per block age (Count)
board.cache_hierarchy.l1i-cache-0.tags.ratioOccsTaskId::1024     0.250000                       # Ratio of occupied blocks and all blocks, per task id (Ratio)
board.cache_hierarchy.l1i-cache-0.tags.tagAccesses     20179589                       # Number of tag accesses (Count)
board.cache_hierarchy.l1i-cache-0.tags.dataAccesses     20179589                       # Number of data accesses (Count)
board.cache_hierarchy.l1i-cache-0.tags.power_state.pwrStateResidencyTicks::UNDEFINED 276964745107573                       # Cumulative time (in ticks) in various power states (Tick)
board.cache_hierarchy.l2-cache-0.demandHits::processor.switch2.core.data       404592                       # number of demand (read+write) hits (Count)
board.cache_hierarchy.l2-cache-0.demandHits::total       404592                       # number of demand (read+write) hits (Count)
board.cache_hierarchy.l2-cache-0.overallHits::processor.switch2.core.data       404592                       # number of overall hits (Count)
board.cache_hierarchy.l2-cache-0.overallHits::total       404592                       # number of overall hits (Count)
board.cache_hierarchy.l2-cache-0.demandMisses::processor.switch2.core.inst            5                       # number of demand (read+write) misses (Count)
board.cache_hierarchy.l2-cache-0.demandMisses::processor.switch2.core.data         8619                       # number of demand (read+write) misses (Count)
board.cache_hierarchy.l2-cache-0.demandMisses::total         8624                       # number of demand (read+write) misses (Count)
board.cache_hierarchy.l2-cache-0.overallMisses::processor.switch2.core.inst            5                       # number of overall misses (Count)
board.cache_hierarchy.l2-cache-0.overallMisses::processor.switch2.core.data         8619                       # number of overall misses (Count)
board.cache_hierarchy.l2-cache-0.overallMisses::total         8624                       # number of overall misses (Count)
board.cache_hierarchy.l2-cache-0.demandMissLatency::processor.switch2.core.inst       339327                       # number of demand (read+write) miss ticks (Tick)
board.cache_hierarchy.l2-cache-0.demandMissLatency::processor.switch2.core.data    512015472                       # number of demand (read+write) miss ticks (Tick)
board.cache_hierarchy.l2-cache-0.demandMissLatency::total    512354799                       # number of demand (read+write) miss ticks (Tick)
board.cache_hierarchy.l2-cache-0.overallMissLatency::processor.switch2.core.inst       339327                       # number of overall miss ticks (Tick)
board.cache_hierarchy.l2-cache-0.overallMissLatency::processor.switch2.core.data    512015472                       # number of overall miss ticks (Tick)
board.cache_hierarchy.l2-cache-0.overallMissLatency::total    512354799                       # number of overall miss ticks (Tick)
board.cache_hierarchy.l2-cache-0.demandAccesses::processor.switch2.core.inst            5                       # number of demand (read+write) accesses (Count)
board.cache_hierarchy.l2-cache-0.demandAccesses::processor.switch2.core.data       413211                       # number of demand (read+write) accesses (Count)
board.cache_hierarchy.l2-cache-0.demandAccesses::total       413216                       # number of demand (read+write) accesses (Count)
board.cache_hierarchy.l2-cache-0.overallAccesses::processor.switch2.core.inst            5                       # number of overall (read+write) accesses (Count)
board.cache_hierarchy.l2-cache-0.overallAccesses::processor.switch2.core.data       413211                       # number of overall (read+write) accesses (Count)
board.cache_hierarchy.l2-cache-0.overallAccesses::total       413216                       # number of overall (read+write) accesses (Count)
board.cache_hierarchy.l2-cache-0.demandMissRate::processor.switch2.core.inst            1                       # miss rate for demand accesses (Ratio)
board.cache_hierarchy.l2-cache-0.demandMissRate::processor.switch2.core.data     0.020859                       # miss rate for demand accesses (Ratio)
board.cache_hierarchy.l2-cache-0.demandMissRate::total     0.020870                       # miss rate for demand accesses (Ratio)
board.cache_hierarchy.l2-cache-0.overallMissRate::processor.switch2.core.inst            1                       # miss rate for overall accesses (Ratio)
board.cache_hierarchy.l2-cache-0.overallMissRate::processor.switch2.core.data     0.020859                       # miss rate for overall accesses (Ratio)
board.cache_hierarchy.l2-cache-0.overallMissRate::total     0.020870                       # miss rate for overall accesses (Ratio)
board.cache_hierarchy.l2-cache-0.demandAvgMissLatency::processor.switch2.core.inst 67865.400000                       # average overall miss latency in ticks ((Tick/Count))
board.cache_hierarchy.l2-cache-0.demandAvgMissLatency::processor.switch2.core.data 59405.438218                       # average overall miss latency in ticks ((Tick/Count))
board.cache_hierarchy.l2-cache-0.demandAvgMissLatency::total 59410.343112                       # average overall miss latency in ticks ((Tick/Count))
board.cache_hierarchy.l2-cache-0.overallAvgMissLatency::processor.switch2.core.inst 67865.400000                       # average overall miss latency ((Tick/Count))
board.cache_hierarchy.l2-cache-0.overallAvgMissLatency::processor.switch2.core.data 59405.438218                       # average overall miss latency ((Tick/Count))
board.cache_hierarchy.l2-cache-0.overallAvgMissLatency::total 59410.343112                       # average overall miss latency ((Tick/Count))
board.cache_hierarchy.l2-cache-0.blockedCycles::no_mshrs            0                       # number of cycles access was blocked (Cycle)
board.cache_hierarchy.l2-cache-0.blockedCycles::no_targets            0                       # number of cycles access was blocked (Cycle)
board.cache_hierarchy.l2-cache-0.blockedCauses::no_mshrs            0                       # number of times access was blocked (Count)
board.cache_hierarchy.l2-cache-0.blockedCauses::no_targets            0                       # number of times access was blocked (Count)
board.cache_hierarchy.l2-cache-0.avgBlocked::no_mshrs          nan                       # average number of cycles each access was blocked ((Cycle/Count))
board.cache_hierarchy.l2-cache-0.avgBlocked::no_targets          nan                       # average number of cycles each access was blocked ((Cycle/Count))
board.cache_hierarchy.l2-cache-0.writebacks::writebacks         2843                       # number of writebacks (Count)
board.cache_hierarchy.l2-cache-0.writebacks::total         2843                       # number of writebacks (Count)
board.cache_hierarchy.l2-cache-0.demandMshrMisses::processor.switch2.core.inst            5                       # number of demand (read+write) MSHR misses (Count)
board.cache_hierarchy.l2-cache-0.demandMshrMisses::processor.switch2.core.data         8619                       # number of demand (read+write) MSHR misses (Count)
board.cache_hierarchy.l2-cache-0.demandMshrMisses::total         8624                       # number of demand (read+write) MSHR misses (Count)
board.cache_hierarchy.l2-cache-0.overallMshrMisses::cache_hierarchy.l2-cache-0.prefetcher           27                       # number of overall MSHR misses (Count)
board.cache_hierarchy.l2-cache-0.overallMshrMisses::processor.switch2.core.inst            5                       # number of overall MSHR misses (Count)
board.cache_hierarchy.l2-cache-0.overallMshrMisses::processor.switch2.core.data         8619                       # number of overall MSHR misses (Count)
board.cache_hierarchy.l2-cache-0.overallMshrMisses::total         8651                       # number of overall MSHR misses (Count)
board.cache_hierarchy.l2-cache-0.demandMshrMissLatency::processor.switch2.core.inst       334332                       # number of demand (read+write) MSHR miss ticks (Tick)
board.cache_hierarchy.l2-cache-0.demandMshrMissLatency::processor.switch2.core.data    503405091                       # number of demand (read+write) MSHR miss ticks (Tick)
board.cache_hierarchy.l2-cache-0.demandMshrMissLatency::total    503739423                       # number of demand (read+write) MSHR miss ticks (Tick)
board.cache_hierarchy.l2-cache-0.overallMshrMissLatency::cache_hierarchy.l2-cache-0.prefetcher      1694637                       # number of overall MSHR miss ticks (Tick)
board.cache_hierarchy.l2-cache-0.overallMshrMissLatency::processor.switch2.core.inst       334332                       # number of overall MSHR miss ticks (Tick)
board.cache_hierarchy.l2-cache-0.overallMshrMissLatency::processor.switch2.core.data    503405091                       # number of overall MSHR miss ticks (Tick)
board.cache_hierarchy.l2-cache-0.overallMshrMissLatency::total    505434060                       # number of overall MSHR miss ticks (Tick)
board.cache_hierarchy.l2-cache-0.demandMshrMissRate::processor.switch2.core.inst            1                       # mshr miss ratio for demand accesses (Ratio)
board.cache_hierarchy.l2-cache-0.demandMshrMissRate::processor.switch2.core.data     0.020859                       # mshr miss ratio for demand accesses (Ratio)
board.cache_hierarchy.l2-cache-0.demandMshrMissRate::total     0.020870                       # mshr miss ratio for demand accesses (Ratio)
board.cache_hierarchy.l2-cache-0.overallMshrMissRate::cache_hierarchy.l2-cache-0.prefetcher          inf                       # mshr miss ratio for overall accesses (Ratio)
board.cache_hierarchy.l2-cache-0.overallMshrMissRate::processor.switch2.core.inst            1                       # mshr miss ratio for overall accesses (Ratio)
board.cache_hierarchy.l2-cache-0.overallMshrMissRate::processor.switch2.core.data     0.020859                       # mshr miss ratio for overall accesses (Ratio)
board.cache_hierarchy.l2-cache-0.overallMshrMissRate::total     0.020936                       # mshr miss ratio for overall accesses (Ratio)
board.cache_hierarchy.l2-cache-0.demandAvgMshrMissLatency::processor.switch2.core.inst 66866.400000                       # average overall mshr miss latency ((Tick/Count))
board.cache_hierarchy.l2-cache-0.demandAvgMshrMissLatency::processor.switch2.core.data 58406.438218                       # average overall mshr miss latency ((Tick/Count))
board.cache_hierarchy.l2-cache-0.demandAvgMshrMissLatency::total 58411.343112                       # average overall mshr miss latency ((Tick/Count))
board.cache_hierarchy.l2-cache-0.overallAvgMshrMissLatency::cache_hierarchy.l2-cache-0.prefetcher 62764.333333                       # average overall mshr miss latency ((Tick/Count))
board.cache_hierarchy.l2-cache-0.overallAvgMshrMissLatency::processor.switch2.core.inst 66866.400000                       # average overall mshr miss latency ((Tick/Count))
board.cache_hierarchy.l2-cache-0.overallAvgMshrMissLatency::processor.switch2.core.data 58406.438218                       # average overall mshr miss latency ((Tick/Count))
board.cache_hierarchy.l2-cache-0.overallAvgMshrMissLatency::total 58424.928910                       # average overall mshr miss latency ((Tick/Count))
board.cache_hierarchy.l2-cache-0.replacements         8654                       # number of replacements (Count)
board.cache_hierarchy.l2-cache-0.CleanEvict.mshrMisses::writebacks            6                       # number of CleanEvict MSHR misses (Count)
board.cache_hierarchy.l2-cache-0.CleanEvict.mshrMisses::total            6                       # number of CleanEvict MSHR misses (Count)
board.cache_hierarchy.l2-cache-0.CleanEvict.mshrMissRate::writebacks          inf                       # mshr miss rate for CleanEvict accesses (Ratio)
board.cache_hierarchy.l2-cache-0.CleanEvict.mshrMissRate::total          inf                       # mshr miss rate for CleanEvict accesses (Ratio)
board.cache_hierarchy.l2-cache-0.HardPFReq.mshrMisses::cache_hierarchy.l2-cache-0.prefetcher           27                       # number of HardPFReq MSHR misses (Count)
board.cache_hierarchy.l2-cache-0.HardPFReq.mshrMisses::total           27                       # number of HardPFReq MSHR misses (Count)
board.cache_hierarchy.l2-cache-0.HardPFReq.mshrMissLatency::cache_hierarchy.l2-cache-0.prefetcher      1694637                       # number of HardPFReq MSHR miss ticks (Tick)
board.cache_hierarchy.l2-cache-0.HardPFReq.mshrMissLatency::total      1694637                       # number of HardPFReq MSHR miss ticks (Tick)
board.cache_hierarchy.l2-cache-0.HardPFReq.mshrMissRate::cache_hierarchy.l2-cache-0.prefetcher          inf                       # mshr miss rate for HardPFReq accesses (Ratio)
board.cache_hierarchy.l2-cache-0.HardPFReq.mshrMissRate::total          inf                       # mshr miss rate for HardPFReq accesses (Ratio)
board.cache_hierarchy.l2-cache-0.HardPFReq.avgMshrMissLatency::cache_hierarchy.l2-cache-0.prefetcher 62764.333333                       # average HardPFReq mshr miss latency ((Tick/Count))
board.cache_hierarchy.l2-cache-0.HardPFReq.avgMshrMissLatency::total 62764.333333                       # average HardPFReq mshr miss latency ((Tick/Count))
board.cache_hierarchy.l2-cache-0.ReadExReq.hits::processor.switch2.core.data        16278                       # number of ReadExReq hits (Count)
board.cache_hierarchy.l2-cache-0.ReadExReq.hits::total        16278                       # number of ReadExReq hits (Count)
board.cache_hierarchy.l2-cache-0.ReadExReq.misses::processor.switch2.core.data           67                       # number of ReadExReq misses (Count)
board.cache_hierarchy.l2-cache-0.ReadExReq.misses::total           67                       # number of ReadExReq misses (Count)
board.cache_hierarchy.l2-cache-0.ReadExReq.missLatency::processor.switch2.core.data      4358304                       # number of ReadExReq miss ticks (Tick)
board.cache_hierarchy.l2-cache-0.ReadExReq.missLatency::total      4358304                       # number of ReadExReq miss ticks (Tick)
board.cache_hierarchy.l2-cache-0.ReadExReq.accesses::processor.switch2.core.data        16345                       # number of ReadExReq accesses(hits+misses) (Count)
board.cache_hierarchy.l2-cache-0.ReadExReq.accesses::total        16345                       # number of ReadExReq accesses(hits+misses) (Count)
board.cache_hierarchy.l2-cache-0.ReadExReq.missRate::processor.switch2.core.data     0.004099                       # miss rate for ReadExReq accesses (Ratio)
board.cache_hierarchy.l2-cache-0.ReadExReq.missRate::total     0.004099                       # miss rate for ReadExReq accesses (Ratio)
board.cache_hierarchy.l2-cache-0.ReadExReq.avgMissLatency::processor.switch2.core.data 65049.313433                       # average ReadExReq miss latency ((Tick/Count))
board.cache_hierarchy.l2-cache-0.ReadExReq.avgMissLatency::total 65049.313433                       # average ReadExReq miss latency ((Tick/Count))
board.cache_hierarchy.l2-cache-0.ReadExReq.mshrMisses::processor.switch2.core.data           67                       # number of ReadExReq MSHR misses (Count)
board.cache_hierarchy.l2-cache-0.ReadExReq.mshrMisses::total           67                       # number of ReadExReq MSHR misses (Count)
board.cache_hierarchy.l2-cache-0.ReadExReq.mshrMissLatency::processor.switch2.core.data      4291371                       # number of ReadExReq MSHR miss ticks (Tick)
board.cache_hierarchy.l2-cache-0.ReadExReq.mshrMissLatency::total      4291371                       # number of ReadExReq MSHR miss ticks (Tick)
board.cache_hierarchy.l2-cache-0.ReadExReq.mshrMissRate::processor.switch2.core.data     0.004099                       # mshr miss rate for ReadExReq accesses (Ratio)
board.cache_hierarchy.l2-cache-0.ReadExReq.mshrMissRate::total     0.004099                       # mshr miss rate for ReadExReq accesses (Ratio)
board.cache_hierarchy.l2-cache-0.ReadExReq.avgMshrMissLatency::processor.switch2.core.data 64050.313433                       # average ReadExReq mshr miss latency ((Tick/Count))
board.cache_hierarchy.l2-cache-0.ReadExReq.avgMshrMissLatency::total 64050.313433                       # average ReadExReq mshr miss latency ((Tick/Count))
board.cache_hierarchy.l2-cache-0.ReadSharedReq.hits::processor.switch2.core.data       388314                       # number of ReadSharedReq hits (Count)
board.cache_hierarchy.l2-cache-0.ReadSharedReq.hits::total       388314                       # number of ReadSharedReq hits (Count)
board.cache_hierarchy.l2-cache-0.ReadSharedReq.misses::processor.switch2.core.inst            5                       # number of ReadSharedReq misses (Count)
board.cache_hierarchy.l2-cache-0.ReadSharedReq.misses::processor.switch2.core.data         8552                       # number of ReadSharedReq misses (Count)
board.cache_hierarchy.l2-cache-0.ReadSharedReq.misses::total         8557                       # number of ReadSharedReq misses (Count)
board.cache_hierarchy.l2-cache-0.ReadSharedReq.missLatency::processor.switch2.core.inst       339327                       # number of ReadSharedReq miss ticks (Tick)
board.cache_hierarchy.l2-cache-0.ReadSharedReq.missLatency::processor.switch2.core.data    507657168                       # number of ReadSharedReq miss ticks (Tick)
board.cache_hierarchy.l2-cache-0.ReadSharedReq.missLatency::total    507996495                       # number of ReadSharedReq miss ticks (Tick)
board.cache_hierarchy.l2-cache-0.ReadSharedReq.accesses::processor.switch2.core.inst            5                       # number of ReadSharedReq accesses(hits+misses) (Count)
board.cache_hierarchy.l2-cache-0.ReadSharedReq.accesses::processor.switch2.core.data       396866                       # number of ReadSharedReq accesses(hits+misses) (Count)
board.cache_hierarchy.l2-cache-0.ReadSharedReq.accesses::total       396871                       # number of ReadSharedReq accesses(hits+misses) (Count)
board.cache_hierarchy.l2-cache-0.ReadSharedReq.missRate::processor.switch2.core.inst            1                       # miss rate for ReadSharedReq accesses (Ratio)
board.cache_hierarchy.l2-cache-0.ReadSharedReq.missRate::processor.switch2.core.data     0.021549                       # miss rate for ReadSharedReq accesses (Ratio)
board.cache_hierarchy.l2-cache-0.ReadSharedReq.missRate::total     0.021561                       # miss rate for ReadSharedReq accesses (Ratio)
board.cache_hierarchy.l2-cache-0.ReadSharedReq.avgMissLatency::processor.switch2.core.inst 67865.400000                       # average ReadSharedReq miss latency ((Tick/Count))
board.cache_hierarchy.l2-cache-0.ReadSharedReq.avgMissLatency::processor.switch2.core.data 59361.221703                       # average ReadSharedReq miss latency ((Tick/Count))
board.cache_hierarchy.l2-cache-0.ReadSharedReq.avgMissLatency::total 59366.190838                       # average ReadSharedReq miss latency ((Tick/Count))
board.cache_hierarchy.l2-cache-0.ReadSharedReq.mshrMisses::processor.switch2.core.inst            5                       # number of ReadSharedReq MSHR misses (Count)
board.cache_hierarchy.l2-cache-0.ReadSharedReq.mshrMisses::processor.switch2.core.data         8552                       # number of ReadSharedReq MSHR misses (Count)
board.cache_hierarchy.l2-cache-0.ReadSharedReq.mshrMisses::total         8557                       # number of ReadSharedReq MSHR misses (Count)
board.cache_hierarchy.l2-cache-0.ReadSharedReq.mshrMissLatency::processor.switch2.core.inst       334332                       # number of ReadSharedReq MSHR miss ticks (Tick)
board.cache_hierarchy.l2-cache-0.ReadSharedReq.mshrMissLatency::processor.switch2.core.data    499113720                       # number of ReadSharedReq MSHR miss ticks (Tick)
board.cache_hierarchy.l2-cache-0.ReadSharedReq.mshrMissLatency::total    499448052                       # number of ReadSharedReq MSHR miss ticks (Tick)
board.cache_hierarchy.l2-cache-0.ReadSharedReq.mshrMissRate::processor.switch2.core.inst            1                       # mshr miss rate for ReadSharedReq accesses (Ratio)
board.cache_hierarchy.l2-cache-0.ReadSharedReq.mshrMissRate::processor.switch2.core.data     0.021549                       # mshr miss rate for ReadSharedReq accesses (Ratio)
board.cache_hierarchy.l2-cache-0.ReadSharedReq.mshrMissRate::total     0.021561                       # mshr miss rate for ReadSharedReq accesses (Ratio)
board.cache_hierarchy.l2-cache-0.ReadSharedReq.avgMshrMissLatency::processor.switch2.core.inst 66866.400000                       # average ReadSharedReq mshr miss latency ((Tick/Count))
board.cache_hierarchy.l2-cache-0.ReadSharedReq.avgMshrMissLatency::processor.switch2.core.data 58362.221703                       # average ReadSharedReq mshr miss latency ((Tick/Count))
board.cache_hierarchy.l2-cache-0.ReadSharedReq.avgMshrMissLatency::total 58367.190838                       # average ReadSharedReq mshr miss latency ((Tick/Count))
board.cache_hierarchy.l2-cache-0.WritebackDirty.hits::writebacks       116724                       # number of WritebackDirty hits (Count)
board.cache_hierarchy.l2-cache-0.WritebackDirty.hits::total       116724                       # number of WritebackDirty hits (Count)
board.cache_hierarchy.l2-cache-0.WritebackDirty.accesses::writebacks       116724                       # number of WritebackDirty accesses(hits+misses) (Count)
board.cache_hierarchy.l2-cache-0.WritebackDirty.accesses::total       116724                       # number of WritebackDirty accesses(hits+misses) (Count)
board.cache_hierarchy.l2-cache-0.power_state.pwrStateResidencyTicks::UNDEFINED 276964745107573                       # Cumulative time (in ticks) in various power states (Tick)
board.cache_hierarchy.l2-cache-0.prefetcher.demandMshrMisses         8624                       # demands not covered by prefetchs (Count)
board.cache_hierarchy.l2-cache-0.prefetcher.pfIssued           38                       # number of hwpf issued (Count)
board.cache_hierarchy.l2-cache-0.prefetcher.pfUnused           11                       # number of HardPF blocks evicted w/o reference (Count)
board.cache_hierarchy.l2-cache-0.prefetcher.pfUseful           16                       # number of useful prefetch (Count)
board.cache_hierarchy.l2-cache-0.prefetcher.pfUsefulButMiss            0                       # number of hit on prefetch but cache block is not in an usable state (Count)
board.cache_hierarchy.l2-cache-0.prefetcher.accuracy     0.421053                       # accuracy of the prefetcher (Count)
board.cache_hierarchy.l2-cache-0.prefetcher.coverage     0.001852                       # coverage brought by this prefetcher (Count)
board.cache_hierarchy.l2-cache-0.prefetcher.pfHitInCache           11                       # number of prefetches hitting in cache (Count)
board.cache_hierarchy.l2-cache-0.prefetcher.pfHitInMSHR            0                       # number of prefetches hitting in a MSHR (Count)
board.cache_hierarchy.l2-cache-0.prefetcher.pfHitInWB            0                       # number of prefetches hit in the Write Buffer (Count)
board.cache_hierarchy.l2-cache-0.prefetcher.pfLate           11                       # number of late prefetches (hitting in cache, MSHR or WB) (Count)
board.cache_hierarchy.l2-cache-0.prefetcher.pfIdentified           38                       # number of prefetch candidates identified (Count)
board.cache_hierarchy.l2-cache-0.prefetcher.pfBufferHit            0                       # number of redundant prefetches already in prefetch queue (Count)
board.cache_hierarchy.l2-cache-0.prefetcher.pfInCache            0                       # number of redundant prefetches already in cache/mshr dropped (Count)
board.cache_hierarchy.l2-cache-0.prefetcher.pfRemovedDemand            0                       # number of prefetches dropped due to a demand for the same address (Count)
board.cache_hierarchy.l2-cache-0.prefetcher.pfRemovedFull            0                       # number of prefetches dropped due to prefetch queue size (Count)
board.cache_hierarchy.l2-cache-0.prefetcher.pfSpanPage           54                       # number of prefetches that crossed the page (Count)
board.cache_hierarchy.l2-cache-0.prefetcher.pfUsefulSpanPage           14                       # number of prefetches that is useful and crossed the page (Count)
board.cache_hierarchy.l2-cache-0.prefetcher.power_state.pwrStateResidencyTicks::UNDEFINED 276964745107573                       # Cumulative time (in ticks) in various power states (Tick)
board.cache_hierarchy.l2-cache-0.tags.tagsInUse         4096                       # Average ticks per tags in use ((Tick/Count))
board.cache_hierarchy.l2-cache-0.tags.totalRefs      2037183                       # Total number of references to valid blocks. (Count)
board.cache_hierarchy.l2-cache-0.tags.sampledRefs        12750                       # Sample count of references to valid blocks. (Count)
board.cache_hierarchy.l2-cache-0.tags.avgRefs   159.779059                       # Average number of references to valid blocks. ((Count/Count))
board.cache_hierarchy.l2-cache-0.tags.warmupTick            0                       # The tick when the warmup percentage was hit. (Tick)
board.cache_hierarchy.l2-cache-0.tags.occupancies::writebacks     3.837852                       # Average occupied blocks per tick, per requestor ((Count/Tick))
board.cache_hierarchy.l2-cache-0.tags.occupancies::cache_hierarchy.l2-cache-0.prefetcher     5.756017                       # Average occupied blocks per tick, per requestor ((Count/Tick))
board.cache_hierarchy.l2-cache-0.tags.occupancies::processor.switch1.core.data  1422.585806                       # Average occupied blocks per tick, per requestor ((Count/Tick))
board.cache_hierarchy.l2-cache-0.tags.occupancies::processor.switch2.core.inst     1.320071                       # Average occupied blocks per tick, per requestor ((Count/Tick))
board.cache_hierarchy.l2-cache-0.tags.occupancies::processor.switch2.core.data  2662.500254                       # Average occupied blocks per tick, per requestor ((Count/Tick))
board.cache_hierarchy.l2-cache-0.tags.avgOccs::writebacks     0.000937                       # Average percentage of cache occupancy ((Ratio/Tick))
board.cache_hierarchy.l2-cache-0.tags.avgOccs::cache_hierarchy.l2-cache-0.prefetcher     0.001405                       # Average percentage of cache occupancy ((Ratio/Tick))
board.cache_hierarchy.l2-cache-0.tags.avgOccs::processor.switch1.core.data     0.347311                       # Average percentage of cache occupancy ((Ratio/Tick))
board.cache_hierarchy.l2-cache-0.tags.avgOccs::processor.switch2.core.inst     0.000322                       # Average percentage of cache occupancy ((Ratio/Tick))
board.cache_hierarchy.l2-cache-0.tags.avgOccs::processor.switch2.core.data     0.650024                       # Average percentage of cache occupancy ((Ratio/Tick))
board.cache_hierarchy.l2-cache-0.tags.avgOccs::total            1                       # Average percentage of cache occupancy ((Ratio/Tick))
board.cache_hierarchy.l2-cache-0.tags.occupanciesTaskId::1024         4096                       # Occupied blocks per task id (Count)
board.cache_hierarchy.l2-cache-0.tags.ageTaskId_1024::0          115                       # Occupied blocks per task id, per block age (Count)
board.cache_hierarchy.l2-cache-0.tags.ageTaskId_1024::1          206                       # Occupied blocks per task id, per block age (Count)
board.cache_hierarchy.l2-cache-0.tags.ageTaskId_1024::2          452                       # Occupied blocks per task id, per block age (Count)
board.cache_hierarchy.l2-cache-0.tags.ageTaskId_1024::3         2856                       # Occupied blocks per task id, per block age (Count)
board.cache_hierarchy.l2-cache-0.tags.ageTaskId_1024::4          467                       # Occupied blocks per task id, per block age (Count)
board.cache_hierarchy.l2-cache-0.tags.ratioOccsTaskId::1024            1                       # Ratio of occupied blocks and all blocks, per task id (Ratio)
board.cache_hierarchy.l2-cache-0.tags.tagAccesses      6620070                       # Number of tag accesses (Count)
board.cache_hierarchy.l2-cache-0.tags.dataAccesses      6620070                       # Number of data accesses (Count)
board.cache_hierarchy.l2-cache-0.tags.power_state.pwrStateResidencyTicks::UNDEFINED 276964745107573                       # Cumulative time (in ticks) in various power states (Tick)
board.cache_hierarchy.l2buses.transDist::ReadResp       396871                       # Transaction distribution (Count)
board.cache_hierarchy.l2buses.transDist::WritebackDirty       119567                       # Transaction distribution (Count)
board.cache_hierarchy.l2buses.transDist::CleanEvict       302298                       # Transaction distribution (Count)
board.cache_hierarchy.l2buses.transDist::HardPFReq           27                       # Transaction distribution (Count)
board.cache_hierarchy.l2buses.transDist::ReadExReq        16345                       # Transaction distribution (Count)
board.cache_hierarchy.l2buses.transDist::ReadExResp        16345                       # Transaction distribution (Count)
board.cache_hierarchy.l2buses.transDist::ReadSharedReq       396871                       # Transaction distribution (Count)
board.cache_hierarchy.l2buses.pktCount_board.cache_hierarchy.l1i-cache-0.mem_side_port::board.cache_hierarchy.l2-cache-0.cpu_side_port           10                       # Packet count per connected requestor and responder (Count)
board.cache_hierarchy.l2buses.pktCount_board.cache_hierarchy.l1d-cache-0.mem_side_port::board.cache_hierarchy.l2-cache-0.cpu_side_port      1239633                       # Packet count per connected requestor and responder (Count)
board.cache_hierarchy.l2buses.pktCount::total      1239643                       # Packet count per connected requestor and responder (Count)
board.cache_hierarchy.l2buses.pktSize_board.cache_hierarchy.l1i-cache-0.mem_side_port::board.cache_hierarchy.l2-cache-0.cpu_side_port          320                       # Cumulative packet size per connected requestor and responder (Byte)
board.cache_hierarchy.l2buses.pktSize_board.cache_hierarchy.l1d-cache-0.mem_side_port::board.cache_hierarchy.l2-cache-0.cpu_side_port     33915840                       # Cumulative packet size per connected requestor and responder (Byte)
board.cache_hierarchy.l2buses.pktSize::total     33916160                       # Cumulative packet size per connected requestor and responder (Byte)
board.cache_hierarchy.l2buses.snoops             8681                       # Total snoops (Count)
board.cache_hierarchy.l2buses.snoopTraffic       181952                       # Total snoop traffic (Byte)
board.cache_hierarchy.l2buses.snoopFanout::samples       421897                       # Request fanout histogram (Count)
board.cache_hierarchy.l2buses.snoopFanout::mean     0.000033                       # Request fanout histogram (Count)
board.cache_hierarchy.l2buses.snoopFanout::stdev     0.005760                       # Request fanout histogram (Count)
board.cache_hierarchy.l2buses.snoopFanout::underflows            0      0.00%      0.00% # Request fanout histogram (Count)
board.cache_hierarchy.l2buses.snoopFanout::0       421883    100.00%    100.00% # Request fanout histogram (Count)
board.cache_hierarchy.l2buses.snoopFanout::1           14      0.00%    100.00% # Request fanout histogram (Count)
board.cache_hierarchy.l2buses.snoopFanout::2            0      0.00%    100.00% # Request fanout histogram (Count)
board.cache_hierarchy.l2buses.snoopFanout::overflows            0      0.00%    100.00% # Request fanout histogram (Count)
board.cache_hierarchy.l2buses.snoopFanout::min_value            0                       # Request fanout histogram (Count)
board.cache_hierarchy.l2buses.snoopFanout::max_value            1                       # Request fanout histogram (Count)
board.cache_hierarchy.l2buses.snoopFanout::total       421897                       # Request fanout histogram (Count)
board.cache_hierarchy.l2buses.power_state.pwrStateResidencyTicks::UNDEFINED 276964745107573                       # Cumulative time (in ticks) in various power states (Tick)
board.cache_hierarchy.l2buses.reqLayer0.occupancy    352938375                       # Layer occupancy (ticks) (Tick)
board.cache_hierarchy.l2buses.reqLayer0.utilization          0.0                       # Layer utilization (Ratio)
board.cache_hierarchy.l2buses.respLayer0.occupancy         4995                       # Layer occupancy (ticks) (Tick)
board.cache_hierarchy.l2buses.respLayer0.utilization          0.0                       # Layer utilization (Ratio)
board.cache_hierarchy.l2buses.respLayer1.occupancy    412797789                       # Layer occupancy (ticks) (Tick)
board.cache_hierarchy.l2buses.respLayer1.utilization          0.0                       # Layer utilization (Ratio)
board.cache_hierarchy.l2buses.snoop_filter.totRequests       826427                       # Total number of requests made to the snoop filter. (Count)
board.cache_hierarchy.l2buses.snoop_filter.hitSingleRequests       413211                       # Number of requests hitting in the snoop filter with a single holder of the requested data. (Count)
board.cache_hierarchy.l2buses.snoop_filter.hitMultiRequests            0                       # Number of requests hitting in the snoop filter with multiple (>1) holders of the requested data. (Count)
board.cache_hierarchy.l2buses.snoop_filter.totSnoops           14                       # Total number of snoops made to the snoop filter. (Count)
board.cache_hierarchy.l2buses.snoop_filter.hitSingleSnoops           14                       # Number of snoops hitting in the snoop filter with a single holder of the requested data. (Count)
board.cache_hierarchy.l2buses.snoop_filter.hitMultiSnoops            0                       # Number of snoops hitting in the snoop filter with multiple (>1) holders of the requested data. (Count)
board.cache_hierarchy.membus.transDist::ReadResp         8584                       # Transaction distribution (Count)
board.cache_hierarchy.membus.transDist::WritebackDirty         2843                       # Transaction distribution (Count)
board.cache_hierarchy.membus.transDist::CleanEvict         5803                       # Transaction distribution (Count)
board.cache_hierarchy.membus.transDist::ReadExReq           67                       # Transaction distribution (Count)
board.cache_hierarchy.membus.transDist::ReadExResp           67                       # Transaction distribution (Count)
board.cache_hierarchy.membus.transDist::ReadSharedReq         8584                       # Transaction distribution (Count)
board.cache_hierarchy.membus.pktCount_board.cache_hierarchy.l2-cache-0.mem_side_port::board.memory.mem_ctrl.port        25948                       # Packet count per connected requestor and responder (Count)
board.cache_hierarchy.membus.pktCount_board.cache_hierarchy.l2-cache-0.mem_side_port::total        25948                       # Packet count per connected requestor and responder (Count)
board.cache_hierarchy.membus.pktCount::total        25948                       # Packet count per connected requestor and responder (Count)
board.cache_hierarchy.membus.pktSize_board.cache_hierarchy.l2-cache-0.mem_side_port::board.memory.mem_ctrl.port       735616                       # Cumulative packet size per connected requestor and responder (Byte)
board.cache_hierarchy.membus.pktSize_board.cache_hierarchy.l2-cache-0.mem_side_port::total       735616                       # Cumulative packet size per connected requestor and responder (Byte)
board.cache_hierarchy.membus.pktSize::total       735616                       # Cumulative packet size per connected requestor and responder (Byte)
board.cache_hierarchy.membus.snoops                 0                       # Total snoops (Count)
board.cache_hierarchy.membus.snoopTraffic            0                       # Total snoop traffic (Byte)
board.cache_hierarchy.membus.snoopFanout::samples         8651                       # Request fanout histogram (Count)
board.cache_hierarchy.membus.snoopFanout::mean            0                       # Request fanout histogram (Count)
board.cache_hierarchy.membus.snoopFanout::stdev            0                       # Request fanout histogram (Count)
board.cache_hierarchy.membus.snoopFanout::underflows            0      0.00%      0.00% # Request fanout histogram (Count)
board.cache_hierarchy.membus.snoopFanout::0         8651    100.00%    100.00% # Request fanout histogram (Count)
board.cache_hierarchy.membus.snoopFanout::1            0      0.00%    100.00% # Request fanout histogram (Count)
board.cache_hierarchy.membus.snoopFanout::overflows            0      0.00%    100.00% # Request fanout histogram (Count)
board.cache_hierarchy.membus.snoopFanout::min_value            0                       # Request fanout histogram (Count)
board.cache_hierarchy.membus.snoopFanout::max_value            0                       # Request fanout histogram (Count)
board.cache_hierarchy.membus.snoopFanout::total         8651                       # Request fanout histogram (Count)
board.cache_hierarchy.membus.badaddr_responder.power_state.pwrStateResidencyTicks::UNDEFINED 276964745107573                       # Cumulative time (in ticks) in various power states (Tick)
board.cache_hierarchy.membus.power_state.pwrStateResidencyTicks::UNDEFINED 276964745107573                       # Cumulative time (in ticks) in various power states (Tick)
board.cache_hierarchy.membus.reqLayer0.occupancy      6706620                       # Layer occupancy (ticks) (Tick)
board.cache_hierarchy.membus.reqLayer0.utilization          0.0                       # Layer utilization (Ratio)
board.cache_hierarchy.membus.respLayer1.occupancy      7195268                       # Layer occupancy (ticks) (Tick)
board.cache_hierarchy.membus.respLayer1.utilization          0.0                       # Layer utilization (Ratio)
board.cache_hierarchy.membus.snoop_filter.totRequests        17297                       # Total number of requests made to the snoop filter. (Count)
board.cache_hierarchy.membus.snoop_filter.hitSingleRequests         8646                       # Number of requests hitting in the snoop filter with a single holder of the requested data. (Count)
board.cache_hierarchy.membus.snoop_filter.hitMultiRequests            0                       # Number of requests hitting in the snoop filter with multiple (>1) holders of the requested data. (Count)
board.cache_hierarchy.membus.snoop_filter.totSnoops            0                       # Total number of snoops made to the snoop filter. (Count)
board.cache_hierarchy.membus.snoop_filter.hitSingleSnoops            0                       # Number of snoops hitting in the snoop filter with a single holder of the requested data. (Count)
board.cache_hierarchy.membus.snoop_filter.hitMultiSnoops            0                       # Number of snoops hitting in the snoop filter with multiple (>1) holders of the requested data. (Count)
board.clk_domain.clock                            333                       # Clock period in ticks (Tick)
board.clk_domain.voltage_domain.voltage             1                       # Voltage in Volts (Volt)
board.memory.mem_ctrl.avgPriority_writebacks::samples      2843.00                       # Average QoS priority value for accepted requests (Count)
board.memory.mem_ctrl.avgPriority_cache_hierarchy.l2-cache-0.prefetcher::samples        27.00                       # Average QoS priority value for accepted requests (Count)
board.memory.mem_ctrl.avgPriority_processor.switch2.core.inst::samples         5.00                       # Average QoS priority value for accepted requests (Count)
board.memory.mem_ctrl.avgPriority_processor.switch2.core.data::samples      8578.00                       # Average QoS priority value for accepted requests (Count)
board.memory.mem_ctrl.priorityMinLatency 0.000000018750                       # per QoS priority minimum request to response latency (Second)
board.memory.mem_ctrl.priorityMaxLatency 0.003047944870                       # per QoS priority maximum request to response latency (Second)
board.memory.mem_ctrl.numReadWriteTurnArounds          166                       # Number of turnarounds from READ to WRITE (Count)
board.memory.mem_ctrl.numWriteReadTurnArounds          166                       # Number of turnarounds from WRITE to READ (Count)
board.memory.mem_ctrl.numStayReadState          23015                       # Number of times bus staying in READ state (Count)
board.memory.mem_ctrl.numStayWriteState          2645                       # Number of times bus staying in WRITE state (Count)
board.memory.mem_ctrl.readReqs                   8651                       # Number of read requests accepted (Count)
board.memory.mem_ctrl.writeReqs                  2843                       # Number of write requests accepted (Count)
board.memory.mem_ctrl.readBursts                 8651                       # Number of controller read bursts, including those serviced by the write queue (Count)
board.memory.mem_ctrl.writeBursts                2843                       # Number of controller write bursts, including those merged in the write queue (Count)
board.memory.mem_ctrl.servicedByWrQ                41                       # Number of controller read bursts serviced by the write queue (Count)
board.memory.mem_ctrl.mergedWrBursts                0                       # Number of controller write bursts merged with an existing one (Count)
board.memory.mem_ctrl.neitherReadNorWriteReqs            0                       # Number of requests that are neither read nor write (Count)
board.memory.mem_ctrl.avgRdQLen                  1.28                       # Average read queue length when enqueuing ((Count/Tick))
board.memory.mem_ctrl.avgWrQLen                 24.81                       # Average write queue length when enqueuing ((Count/Tick))
board.memory.mem_ctrl.numRdRetry                    0                       # Number of times read queue was full causing retry (Count)
board.memory.mem_ctrl.numWrRetry                    0                       # Number of times write queue was full causing retry (Count)
board.memory.mem_ctrl.readPktSize::0                0                       # Read request sizes (log2) (Count)
board.memory.mem_ctrl.readPktSize::1                0                       # Read request sizes (log2) (Count)
board.memory.mem_ctrl.readPktSize::2                0                       # Read request sizes (log2) (Count)
board.memory.mem_ctrl.readPktSize::3                0                       # Read request sizes (log2) (Count)
board.memory.mem_ctrl.readPktSize::4                0                       # Read request sizes (log2) (Count)
board.memory.mem_ctrl.readPktSize::5                0                       # Read request sizes (log2) (Count)
board.memory.mem_ctrl.readPktSize::6             8651                       # Read request sizes (log2) (Count)
board.memory.mem_ctrl.writePktSize::0               0                       # Write request sizes (log2) (Count)
board.memory.mem_ctrl.writePktSize::1               0                       # Write request sizes (log2) (Count)
board.memory.mem_ctrl.writePktSize::2               0                       # Write request sizes (log2) (Count)
board.memory.mem_ctrl.writePktSize::3               0                       # Write request sizes (log2) (Count)
board.memory.mem_ctrl.writePktSize::4               0                       # Write request sizes (log2) (Count)
board.memory.mem_ctrl.writePktSize::5               0                       # Write request sizes (log2) (Count)
board.memory.mem_ctrl.writePktSize::6            2843                       # Write request sizes (log2) (Count)
board.memory.mem_ctrl.rdQLenPdf::0               4551                       # What read queue length does an incoming req see (Count)
board.memory.mem_ctrl.rdQLenPdf::1               1780                       # What read queue length does an incoming req see (Count)
board.memory.mem_ctrl.rdQLenPdf::2                625                       # What read queue length does an incoming req see (Count)
board.memory.mem_ctrl.rdQLenPdf::3               1121                       # What read queue length does an incoming req see (Count)
board.memory.mem_ctrl.rdQLenPdf::4                357                       # What read queue length does an incoming req see (Count)
board.memory.mem_ctrl.rdQLenPdf::5                144                       # What read queue length does an incoming req see (Count)
board.memory.mem_ctrl.rdQLenPdf::6                 22                       # What read queue length does an incoming req see (Count)
board.memory.mem_ctrl.rdQLenPdf::7                  4                       # What read queue length does an incoming req see (Count)
board.memory.mem_ctrl.rdQLenPdf::8                  4                       # What read queue length does an incoming req see (Count)
board.memory.mem_ctrl.rdQLenPdf::9                  1                       # What read queue length does an incoming req see (Count)
board.memory.mem_ctrl.rdQLenPdf::10                 1                       # What read queue length does an incoming req see (Count)
board.memory.mem_ctrl.rdQLenPdf::11                 0                       # What read queue length does an incoming req see (Count)
board.memory.mem_ctrl.rdQLenPdf::12                 0                       # What read queue length does an incoming req see (Count)
board.memory.mem_ctrl.rdQLenPdf::13                 0                       # What read queue length does an incoming req see (Count)
board.memory.mem_ctrl.rdQLenPdf::14                 0                       # What read queue length does an incoming req see (Count)
board.memory.mem_ctrl.rdQLenPdf::15                 0                       # What read queue length does an incoming req see (Count)
board.memory.mem_ctrl.rdQLenPdf::16                 0                       # What read queue length does an incoming req see (Count)
board.memory.mem_ctrl.rdQLenPdf::17                 0                       # What read queue length does an incoming req see (Count)
board.memory.mem_ctrl.rdQLenPdf::18                 0                       # What read queue length does an incoming req see (Count)
board.memory.mem_ctrl.rdQLenPdf::19                 0                       # What read queue length does an incoming req see (Count)
board.memory.mem_ctrl.rdQLenPdf::20                 0                       # What read queue length does an incoming req see (Count)
board.memory.mem_ctrl.rdQLenPdf::21                 0                       # What read queue length does an incoming req see (Count)
board.memory.mem_ctrl.rdQLenPdf::22                 0                       # What read queue length does an incoming req see (Count)
board.memory.mem_ctrl.rdQLenPdf::23                 0                       # What read queue length does an incoming req see (Count)
board.memory.mem_ctrl.rdQLenPdf::24                 0                       # What read queue length does an incoming req see (Count)
board.memory.mem_ctrl.rdQLenPdf::25                 0                       # What read queue length does an incoming req see (Count)
board.memory.mem_ctrl.rdQLenPdf::26                 0                       # What read queue length does an incoming req see (Count)
board.memory.mem_ctrl.rdQLenPdf::27                 0                       # What read queue length does an incoming req see (Count)
board.memory.mem_ctrl.rdQLenPdf::28                 0                       # What read queue length does an incoming req see (Count)
[...]
board.processor.switch2.core.executeStats0.numMiscRegReads     22264424                       # Number of times the Misc registers were read (Count)
board.processor.switch2.core.executeStats0.numVecAluAccesses            0                       # Number of vector alu accesses (Count)
board.processor.switch2.core.executeStats0.numDiscardedOps            0                       # Number of ops (including micro ops) which were discarded before commit (Count)
board.processor.switch2.core.fetch.predictedBranches      1892266                       # Number of branches that fetch has predicted taken (Count)
board.processor.switch2.core.fetch.cycles     43187934                       # Number of cycles fetch has run and was not squashing or blocked (Cycle)
board.processor.switch2.core.fetch.squashCycles       131916                       # Number of cycles fetch has spent squashing (Cycle)
board.processor.switch2.core.fetch.cacheLines      5044896                       # Number of cache lines fetched (Count)
board.processor.switch2.core.fetch.icacheSquashes            8                       # Number of outstanding Icache misses that were squashed (Count)
board.processor.switch2.core.fetch.nisnDist::samples     43312922                       # Number of instructions fetched each cycle (Total) (Count)
board.processor.switch2.core.fetch.nisnDist::mean     1.833015                       # Number of instructions fetched each cycle (Total) (Count)
board.processor.switch2.core.fetch.nisnDist::stdev     0.487381                       # Number of instructions fetched each cycle (Total) (Count)
board.processor.switch2.core.fetch.nisnDist::underflows            0      0.00%      0.00% # Number of instructions fetched each cycle (Total) (Count)
board.processor.switch2.core.fetch.nisnDist::0      2131834      4.92%      4.92% # Number of instructions fetched each cycle (Total) (Count)
board.processor.switch2.core.fetch.nisnDist::1      2968946      6.85%     11.78% # Number of instructions fetched each cycle (Total) (Count)
board.processor.switch2.core.fetch.nisnDist::2     38212142     88.22%    100.00% # Number of instructions fetched each cycle (Total) (Count)
board.processor.switch2.core.fetch.nisnDist::overflows            0      0.00%    100.00% # Number of instructions fetched each cycle (Total) (Count)
board.processor.switch2.core.fetch.nisnDist::min_value            0                       # Number of instructions fetched each cycle (Total) (Count)
board.processor.switch2.core.fetch.nisnDist::max_value            2                       # Number of instructions fetched each cycle (Total) (Count)
board.processor.switch2.core.fetch.nisnDist::total     43312922                       # Number of instructions fetched each cycle (Total) (Count)
board.processor.switch2.core.fetchStats0.numInsts     54369794                       # Number of instructions fetched (thread level) (Count)
board.processor.switch2.core.fetchStats0.numOps            0                       # Number of ops (including micro ops) fetched (thread level) (Count)
board.processor.switch2.core.fetchStats0.fetchRate     1.255279                       # Number of inst fetches per cycle ((Count/Cycle))
board.processor.switch2.core.fetchStats0.numBranches      2456248                       # Number of branches fetched (Count)
board.processor.switch2.core.fetchStats0.branchRate     0.056709                       # Number of branch fetches per cycle (Ratio)
board.processor.switch2.core.fetchStats0.icacheStallCycles        59030                       # ICache total stall cycles (Cycle)
board.processor.switch2.core.fetchStats0.numFetchSuspends            0                       # Number of times Execute suspended instruction fetching (Count)
board.processor.switch2.core.iew.idleCycles            0                       # Number of cycles IEW is idle (Cycle)
board.processor.switch2.core.iew.squashCycles        65941                       # Number of cycles IEW is squashing (Cycle)
board.processor.switch2.core.iew.blockCycles       202570                       # Number of cycles IEW is blocking (Cycle)
board.processor.switch2.core.iew.unblockCycles        69218                       # Number of cycles IEW is unblocking (Cycle)
board.processor.switch2.core.iew.dispatchedInsts     78822374                       # Number of instructions dispatched to IQ (Count)
board.processor.switch2.core.iew.dispSquashedInsts       108021                       # Number of squashed instructions skipped by dispatch (Count)
board.processor.switch2.core.iew.dispLoadInsts     13129231                       # Number of dispatched load instructions (Count)
board.processor.switch2.core.iew.dispStoreInsts      4006687                       # Number of dispatched store instructions (Count)
board.processor.switch2.core.iew.dispNonSpecInsts            0                       # Number of dispatched non-speculative instructions (Count)
board.processor.switch2.core.iew.iqFullEvents          766                       # Number of times the IQ has become full, causing a stall (Count)
board.processor.switch2.core.iew.lsqFullEvents        67404                       # Number of times the LSQ has become full, causing a stall (Count)
board.processor.switch2.core.iew.memOrderViolationEvents          595                       # Number of memory order violations (Count)
board.processor.switch2.core.iew.predictedTakenIncorrect        37333                       # Number of branches that were predicted taken incorrectly (Count)
board.processor.switch2.core.iew.predictedNotTakenIncorrect        28541                       # Number of branches that were predicted not taken incorrectly (Count)
board.processor.switch2.core.iew.branchMispredicts        65874                       # Number of branch mispredicts detected at execute (Count)
board.processor.switch2.core.iew.instsToCommit     78562192                       # Cumulative count of insts sent to commit (Count)
board.processor.switch2.core.iew.writebackCount     78561823                       # Cumulative count of insts written-back (Count)
board.processor.switch2.core.iew.producerInst     44192475                       # Number of instructions producing a value (Count)
board.processor.switch2.core.iew.consumerInst     69421500                       # Number of instructions consuming a value (Count)
board.processor.switch2.core.iew.wbRate      1.813820                       # Insts written-back per cycle ((Count/Cycle))
board.processor.switch2.core.iew.wbFanout     0.636582                       # Average fanout of values written-back ((Count/Count))
board.processor.switch2.core.lsq0.forwLoads       284689                       # Number of loads that had data forwarded from stores (Count)
board.processor.switch2.core.lsq0.squashedLoads        75984                       # Number of loads squashed (Count)
board.processor.switch2.core.lsq0.ignoredResponses           21                       # Number of memory responses ignored because the instruction is squashed (Count)
board.processor.switch2.core.lsq0.memOrderViolation          595                       # Number of memory ordering violations (Count)
board.processor.switch2.core.lsq0.squashedStores        14426                       # Number of stores squashed (Count)
board.processor.switch2.core.lsq0.rescheduledLoads            4                       # Number of loads that were rescheduled (Count)
board.processor.switch2.core.lsq0.blockedByCache            0                       # Number of times an access to memory failed due to the cache being blocked (Count)
board.processor.switch2.core.lsq0.loadToUse::samples     13053246                       # Distribution of cycle latency between the first time a load is issued and its completion (Unspecified)
board.processor.switch2.core.lsq0.loadToUse::mean     2.577533                       # Distribution of cycle latency between the first time a load is issued and its completion (Unspecified)
board.processor.switch2.core.lsq0.loadToUse::stdev     6.268257                       # Distribution of cycle latency between the first time a load is issued and its completion (Unspecified)
board.processor.switch2.core.lsq0.loadToUse::0-9     13003507     99.62%     99.62% # Distribution of cycle latency between the first time a load is issued and its completion (Unspecified)
board.processor.switch2.core.lsq0.loadToUse::10-19        36870      0.28%     99.90% # Distribution of cycle latency between the first time a load is issued and its completion (Unspecified)
board.processor.switch2.core.lsq0.loadToUse::20-29           27      0.00%     99.90% # Distribution of cycle latency between the first time a load is issued and its completion (Unspecified)
board.processor.switch2.core.lsq0.loadToUse::30-39           49      0.00%     99.90% # Distribution of cycle latency between the first time a load is issued and its completion (Unspecified)
board.processor.switch2.core.lsq0.loadToUse::40-49          164      0.00%     99.90% # Distribution of cycle latency between the first time a load is issued and its completion (Unspecified)
board.processor.switch2.core.lsq0.loadToUse::50-59          277      0.00%     99.91% # Distribution of cycle latency between the first time a load is issued and its completion (Unspecified)
board.processor.switch2.core.lsq0.loadToUse::60-69          120      0.00%     99.91% # Distribution of cycle latency between the first time a load is issued and its completion (Unspecified)
board.processor.switch2.core.lsq0.loadToUse::70-79           26      0.00%     99.91% # Distribution of cycle latency between the first time a load is issued and its completion (Unspecified)
board.processor.switch2.core.lsq0.loadToUse::80-89           29      0.00%     99.91% # Distribution of cycle latency between the first time a load is issued and its completion (Unspecified)
board.processor.switch2.core.lsq0.loadToUse::90-99            7      0.00%     99.91% # Distribution of cycle latency between the first time a load is issued and its completion (Unspecified)
board.processor.switch2.core.lsq0.loadToUse::100-109           30      0.00%     99.91% # Distribution of cycle latency between the first time a load is issued and its completion (Unspecified)
board.processor.switch2.core.lsq0.loadToUse::110-119           80      0.00%     99.91% # Distribution of cycle latency between the first time a load is issued and its completion (Unspecified)
board.processor.switch2.core.lsq0.loadToUse::120-129          153      0.00%     99.91% # Distribution of cycle latency between the first time a load is issued and its completion (Unspecified)
board.processor.switch2.core.lsq0.loadToUse::130-139         3632      0.03%     99.94% # Distribution of cycle latency between the first time a load is issued and its completion (Unspecified)
board.processor.switch2.core.lsq0.loadToUse::140-149          532      0.00%     99.94% # Distribution of cycle latency between the first time a load is issued and its completion (Unspecified)
board.processor.switch2.core.lsq0.loadToUse::150-159          694      0.01%     99.95% # Distribution of cycle latency between the first time a load is issued and its completion (Unspecified)
board.processor.switch2.core.lsq0.loadToUse::160-169          357      0.00%     99.95% # Distribution of cycle latency between the first time a load is issued and its completion (Unspecified)
board.processor.switch2.core.lsq0.loadToUse::170-179         3525      0.03%     99.98% # Distribution of cycle latency between the first time a load is issued and its completion (Unspecified)
board.processor.switch2.core.lsq0.loadToUse::180-189         2078      0.02%     99.99% # Distribution of cycle latency between the first time a load is issued and its completion (Unspecified)
board.processor.switch2.core.lsq0.loadToUse::190-199          106      0.00%     99.99% # Distribution of cycle latency between the first time a load is issued and its completion (Unspecified)
board.processor.switch2.core.lsq0.loadToUse::200-209           29      0.00%     99.99% # Distribution of cycle latency between the first time a load is issued and its completion (Unspecified)
board.processor.switch2.core.lsq0.loadToUse::210-219           67      0.00%     99.99% # Distribution of cycle latency between the first time a load is issued and its completion (Unspecified)
board.processor.switch2.core.lsq0.loadToUse::220-229          321      0.00%    100.00% # Distribution of cycle latency between the first time a load is issued and its completion (Unspecified)
board.processor.switch2.core.lsq0.loadToUse::230-239           27      0.00%    100.00% # Distribution of cycle latency between the first time a load is issued and its completion (Unspecified)
board.processor.switch2.core.lsq0.loadToUse::240-249           11      0.00%    100.00% # Distribution of cycle latency between the first time a load is issued and its completion (Unspecified)
board.processor.switch2.core.lsq0.loadToUse::250-259           12      0.00%    100.00% # Distribution of cycle latency between the first time a load is issued and its completion (Unspecified)
board.processor.switch2.core.lsq0.loadToUse::260-269            5      0.00%    100.00% # Distribution of cycle latency between the first time a load is issued and its completion (Unspecified)
board.processor.switch2.core.lsq0.loadToUse::270-279           15      0.00%    100.00% # Distribution of cycle latency between the first time a load is issued and its completion (Unspecified)
board.processor.switch2.core.lsq0.loadToUse::280-289           22      0.00%    100.00% # Distribution of cycle latency between the first time a load is issued and its completion (Unspecified)
board.processor.switch2.core.lsq0.loadToUse::290-299            4      0.00%    100.00% # Distribution of cycle latency between the first time a load is issued and its completion (Unspecified)
board.processor.switch2.core.lsq0.loadToUse::overflows          470      0.00%    100.00% # Distribution of cycle latency between the first time a load is issued and its completion (Unspecified)
board.processor.switch2.core.lsq0.loadToUse::min_value            2                       # Distribution of cycle latency between the first time a load is issued and its completion (Unspecified)
board.processor.switch2.core.lsq0.loadToUse::max_value         1054                       # Distribution of cycle latency between the first time a load is issued and its completion (Unspecified)
board.processor.switch2.core.lsq0.loadToUse::total     13053246                       # Distribution of cycle latency between the first time a load is issued and its completion (Unspecified)
board.processor.switch2.core.mmu.dtb.rdAccesses     13095705                       # TLB accesses on read requests (Count)
board.processor.switch2.core.mmu.dtb.wrAccesses      4004691                       # TLB accesses on write requests (Count)
board.processor.switch2.core.mmu.dtb.rdMisses          840                       # TLB misses on read requests (Count)
board.processor.switch2.core.mmu.dtb.wrMisses            6                       # TLB misses on write requests (Count)
board.processor.switch2.core.mmu.dtb.walker.power_state.pwrStateResidencyTicks::UNDEFINED 276964745107573                       # Cumulative time (in ticks) in various power states (Tick)
board.processor.switch2.core.mmu.itb.rdAccesses            0                       # TLB accesses on read requests (Count)
board.processor.switch2.core.mmu.itb.wrAccesses      5044896                       # TLB accesses on write requests (Count)
board.processor.switch2.core.mmu.itb.rdMisses            0                       # TLB misses on read requests (Count)
board.processor.switch2.core.mmu.itb.wrMisses            6                       # TLB misses on write requests (Count)
board.processor.switch2.core.mmu.itb.walker.power_state.pwrStateResidencyTicks::UNDEFINED 276964745107573                       # Cumulative time (in ticks) in various power states (Tick)
board.processor.switch2.core.power_state.pwrStateResidencyTicks::OFF 276964745107573                       # Cumulative time (in ticks) in various power states (Tick)
board.processor.switch2.core.rename.squashCycles        65941                       # Number of cycles rename is squashing (Cycle)
board.processor.switch2.core.rename.idleCycles      1691809                       # Number of cycles rename is idle (Cycle)
board.processor.switch2.core.rename.blockCycles       327131                       # Number of cycles rename is blocking (Cycle)
board.processor.switch2.core.rename.serializeStallCycles            0                       # count of cycles rename stalled for serializing inst (Cycle)
board.processor.switch2.core.rename.runCycles     40975873                       # Number of cycles rename is running (Cycle)
board.processor.switch2.core.rename.unblockCycles       252143                       # Number of cycles rename is unblocking (Cycle)
board.processor.switch2.core.rename.renamedInsts     79069138                       # Number of instructions processed by rename (Count)
board.processor.switch2.core.rename.ROBFullEvents          756                       # Number of times rename has blocked due to ROB full (Count)
board.processor.switch2.core.rename.IQFullEvents         4373                       # Number of times rename has blocked due to IQ full (Count)
board.processor.switch2.core.rename.LQFullEvents       240041                       # Number of times rename has blocked due to LQ full (Count)
board.processor.switch2.core.rename.SQFullEvents         1389                       # Number of times rename has blocked due to SQ full (Count)
board.processor.switch2.core.rename.fullRegistersEvents            5                       # Number of times there has been no free registers (Count)
board.processor.switch2.core.rename.renamedOperands    103804227                       # Number of destination operands rename has renamed (Count)
board.processor.switch2.core.rename.lookups    222505763                       # Number of register rename lookups that rename has made (Count)
board.processor.switch2.core.rename.intLookups     45362181                       # Number of integer rename lookups (Count)
board.processor.switch2.core.rename.fpLookups     92025930                       # Number of floating rename lookups (Count)
board.processor.switch2.core.rename.committedMaps    102226538                       # Number of HB maps that are committed (Count)
board.processor.switch2.core.rename.undoneMaps      1577672                       # Number of HB maps that are undone due to squashing (Count)
board.processor.switch2.core.rename.serializing            0                       # count of serializing insts renamed (Count)
board.processor.switch2.core.rename.tempSerializing            0                       # count of temporary serializing insts renamed (Count)
board.processor.switch2.core.rename.skidInsts        39638                       # count of insts added to the skid buffer (Count)
board.processor.switch2.core.rob.reads       84247303                       # The number of ROB reads (Count)
board.processor.switch2.core.rob.writes     157733782                       # The number of ROB writes (Count)
board.processor.switch2.core.thread_0.numInsts     53717476                       # Number of Instructions committed (Count)
board.processor.switch2.core.thread_0.numOps     78268398                       # Number of Ops committed (Count)
board.processor.switch2.core.thread_0.numMemRefs            0                       # Number of Memory References (Count)
board.workload.inst.arm                             0                       # number of arm instructions executed (Count)
board.workload.inst.quiesce                         0                       # number of quiesce instructions executed (Count)

---------- End Simulation Statistics   ----------
