
---------- Begin Simulation Statistics ----------
simSeconds                                   0.014448                       # Number of seconds simulated (Second)
simTicks                                  14447948114                       # Number of ticks simulated (Tick)
finalTick                                225700565981194                       # Number of ticks from beginning of simulation (restored from checkpoints and never reset) (Tick)
simFreq                                  1000000000000                       # The number of ticks per simulated second ((Tick/Second))
hostSeconds                                    215.87                       # Real time elapsed on the host (Second)
hostTickRate                                 66929776                       # The number of ticks simulated per host second (ticks/s) ((Tick/Second))
hostMemory                                    4388808                       # Number of bytes of host memory used (Byte)
simInsts                                 1646057433622                       # Number of instructions simulated (Count)
simOps                                   1646175509726                       # Number of ops (including micro ops) simulated (Count)
hostInstRate                               7625317258                       # Simulator instruction rate (inst/s) ((Count/Second))
hostOpRate                                 7625863925                       # Simulator op (including micro ops) rate (op/s) ((Count/Second))
board.cache_hierarchy.l1d-cache-0.demandHits::processor.switch2.core.data     16233213                       # number of demand (read+write) hits (Count)
board.cache_hierarchy.l1d-cache-0.demandHits::total     16233213                       # number of demand (read+write) hits (Count)
board.cache_hierarchy.l1d-cache-0.overallHits::processor.switch2.core.data     16233213                       # number of overall hits (Count)
board.cache_hierarchy.l1d-cache-0.overallHits::total     16233213                       # number of overall hits (Count)
board.cache_hierarchy.l1d-cache-0.demandMisses::processor.switch2.core.data       848602                       # number of demand (read+write) misses (Count)
board.cache_hierarchy.l1d-cache-0.demandMisses::total       848602                       # number of demand (read+write) misses (Count)
board.cache_hierarchy.l1d-cache-0.overallMisses::processor.switch2.core.data       848602                       # number of overall misses (Count)
board.cache_hierarchy.l1d-cache-0.overallMisses::total       848602                       # number of overall misses (Count)
board.cache_hierarchy.l1d-cache-0.demandMissLatency::processor.switch2.core.data   3030192441                       # number of demand (read+write) miss ticks (Tick)
board.cache_hierarchy.l1d-cache-0.demandMissLatency::total   3030192441                       # number of demand (read+write) miss ticks (Tick)
board.cache_hierarchy.l1d-cache-0.overallMissLatency::processor.switch2.core.data   3030192441                       # number of overall miss ticks (Tick)
board.cache_hierarchy.l1d-cache-0.overallMissLatency::total   3030192441                       # number of overall miss ticks (Tick)
board.cache_hierarchy.l1d-cache-0.demandAccesses::processor.switch2.core.data     17081815                       # number of demand (read+write) accesses (Count)
board.cache_hierarchy.l1d-cache-0.demandAccesses::total     17081815                       # number of demand (read+write) accesses (Count)
board.cache_hierarchy.l1d-cache-0.overallAccesses::processor.switch2.core.data     17081815                       # number of overall (read+write) accesses (Count)
board.cache_hierarchy.l1d-cache-0.overallAccesses::total     17081815                       # number of overall (read+write) accesses (Count)
board.cache_hierarchy.l1d-cache-0.demandMissRate::processor.switch2.core.data     0.049679                       # miss rate for demand accesses (Ratio)
board.cache_hierarchy.l1d-cache-0.demandMissRate::total     0.049679                       # miss rate for demand accesses (Ratio)
board.cache_hierarchy.l1d-cache-0.overallMissRate::processor.switch2.core.data     0.049679                       # miss rate for overall accesses (Ratio)
board.cache_hierarchy.l1d-cache-0.overallMissRate::total     0.049679                       # miss rate for overall accesses (Ratio)
board.cache_hierarchy.l1d-cache-0.demandAvgMissLatency::processor.switch2.core.data  3570.805208                       # average overall miss latency in ticks ((Tick/Count))
board.cache_hierarchy.l1d-cache-0.demandAvgMissLatency::total  3570.805208                       # average overall miss latency in ticks ((Tick/Count))
board.cache_hierarchy.l1d-cache-0.overallAvgMissLatency::processor.switch2.core.data  3570.805208                       # average overall miss latency ((Tick/Count))
board.cache_hierarchy.l1d-cache-0.overallAvgMissLatency::total  3570.805208                       # average overall miss latency ((Tick/Count))
board.cache_hierarchy.l1d-cache-0.blockedCycles::no_mshrs            0                       # number of cycles access was blocked (Cycle)
board.cache_hierarchy.l1d-cache-0.blockedCycles::no_targets            0                       # number of cycles access was blocked (Cycle)
board.cache_hierarchy.l1d-cache-0.blockedCauses::no_mshrs            0                       # number of times access was blocked (Count)
board.cache_hierarchy.l1d-cache-0.blockedCauses::no_targets            0                       # number of times access was blocked (Count)
board.cache_hierarchy.l1d-cache-0.avgBlocked::no_mshrs          nan                       # average number of cycles each access was blocked ((Cycle/Count))
board.cache_hierarchy.l1d-cache-0.avgBlocked::no_targets          nan                       # average number of cycles each access was blocked ((Cycle/Count))
board.cache_hierarchy.l1d-cache-0.writebacks::writebacks       108753                       # number of writebacks (Count)
board.cache_hierarchy.l1d-cache-0.writebacks::total       108753                       # number of writebacks (Count)
board.cache_hierarchy.l1d-cache-0.demandMshrHits::processor.switch2.core.data       442399                       # number of demand (read+write) MSHR hits (Count)
board.cache_hierarchy.l1d-cache-0.demandMshrHits::total       442399                       # number of demand (read+write) MSHR hits (Count)
board.cache_hierarchy.l1d-cache-0.overallMshrHits::processor.switch2.core.data       442399                       # number of overall MSHR hits (Count)
board.cache_hierarchy.l1d-cache-0.overallMshrHits::total       442399                       # number of overall MSHR hits (Count)
board.cache_hierarchy.l1d-cache-0.demandMshrMisses::processor.switch2.core.data       406203                       # number of demand (read+write) MSHR misses (Count)
board.cache_hierarchy.l1d-cache-0.demandMshrMisses::total       406203                       # number of demand (read+write) MSHR misses (Count)
board.cache_hierarchy.l1d-cache-0.overallMshrMisses::processor.switch2.core.data       406203                       # number of overall MSHR misses (Count)
board.cache_hierarchy.l1d-cache-0.overallMshrMisses::total       406203                       # number of overall MSHR misses (Count)
board.cache_hierarchy.l1d-cache-0.demandMshrMissLatency::processor.switch2.core.data   1322887455                       # number of demand (read+write) MSHR miss ticks (Tick)
board.cache_hierarchy.l1d-cache-0.demandMshrMissLatency::total   1322887455                       # number of demand (read+write) MSHR miss ticks (Tick)
board.cache_hierarchy.l1d-cache-0.overallMshrMissLatency::processor.switch2.core.data   1322887455                       # number of overall MSHR miss ticks (Tick)
board.cache_hierarchy.l1d-cache-0.overallMshrMissLatency::total   1322887455                       # number of overall MSHR miss ticks (Tick)
board.cache_hierarchy.l1d-cache-0.demandMshrMissRate::processor.switch2.core.data     0.023780                       # mshr miss ratio for demand accesses (Ratio)
board.cache_hierarchy.l1d-cache-0.demandMshrMissRate::total     0.023780                       # mshr miss ratio for demand accesses (Ratio)
board.cache_hierarchy.l1d-cache-0.overallMshrMissRate::processor.switch2.core.data     0.023780                       # mshr miss ratio for overall accesses (Ratio)
board.cache_hierarchy.l1d-cache-0.overallMshrMissRate::total     0.023780                       # mshr miss ratio for overall accesses (Ratio)
board.cache_hierarchy.l1d-cache-0.demandAvgMshrMissLatency::processor.switch2.core.data  3256.715128                       # average overall mshr miss latency ((Tick/Count))
board.cache_hierarchy.l1d-cache-0.demandAvgMshrMissLatency::total  3256.715128                       # average overall mshr miss latency ((Tick/Count))
board.cache_hierarchy.l1d-cache-0.overallAvgMshrMissLatency::processor.switch2.core.data  3256.715128                       # average overall mshr miss latency ((Tick/Count))
board.cache_hierarchy.l1d-cache-0.overallAvgMshrMissLatency::total  3256.715128                       # average overall mshr miss latency ((Tick/Count))
board.cache_hierarchy.l1d-cache-0.replacements       406203                       # number of replacements (Count)
board.cache_hierarchy.l1d-cache-0.ReadReq.hits::processor.switch2.core.data     12108663                       # number of ReadReq hits (Count)
board.cache_hierarchy.l1d-cache-0.ReadReq.hits::total     12108663                       # number of ReadReq hits (Count)
board.cache_hierarchy.l1d-cache-0.ReadReq.misses::processor.switch2.core.data       836897                       # number of ReadReq misses (Count)
board.cache_hierarchy.l1d-cache-0.ReadReq.misses::total       836897                       # number of ReadReq misses (Count)
board.cache_hierarchy.l1d-cache-0.ReadReq.missLatency::processor.switch2.core.data   2999243754                       # number of ReadReq miss ticks (Tick)
board.cache_hierarchy.l1d-cache-0.ReadReq.missLatency::total   2999243754                       # number of ReadReq miss ticks (Tick)
board.cache_hierarchy.l1d-cache-0.ReadReq.accesses::processor.switch2.core.data     12945560                       # number of ReadReq accesses(hits+misses) (Count)
board.cache_hierarchy.l1d-cache-0.ReadReq.accesses::total     12945560                       # number of ReadReq accesses(hits+misses) (Count)
board.cache_hierarchy.l1d-cache-0.ReadReq.missRate::processor.switch2.core.data     0.064647                       # miss rate for ReadReq accesses (Ratio)
board.cache_hierarchy.l1d-cache-0.ReadReq.missRate::total     0.064647                       # miss rate for ReadReq accesses (Ratio)
board.cache_hierarchy.l1d-cache-0.ReadReq.avgMissLatency::processor.switch2.core.data  3583.766884                       # average ReadReq miss latency ((Tick/Count))
board.cache_hierarchy.l1d-cache-0.ReadReq.avgMissLatency::total  3583.766884                       # average ReadReq miss latency ((Tick/Count))
board.cache_hierarchy.l1d-cache-0.ReadReq.mshrHits::processor.switch2.core.data       442394                       # number of ReadReq MSHR hits (Count)
board.cache_hierarchy.l1d-cache-0.ReadReq.mshrHits::total       442394                       # number of ReadReq MSHR hits (Count)
board.cache_hierarchy.l1d-cache-0.ReadReq.mshrMisses::processor.switch2.core.data       394503                       # number of ReadReq MSHR misses (Count)
board.cache_hierarchy.l1d-cache-0.ReadReq.mshrMisses::total       394503                       # number of ReadReq MSHR misses (Count)
board.cache_hierarchy.l1d-cache-0.ReadReq.mshrMissLatency::processor.switch2.core.data   1295844858                       # number of ReadReq MSHR miss ticks (Tick)
board.cache_hierarchy.l1d-cache-0.ReadReq.mshrMissLatency::total   1295844858                       # number of ReadReq MSHR miss ticks (Tick)
board.cache_hierarchy.l1d-cache-0.ReadReq.mshrMissRate::processor.switch2.core.data     0.030474                       # mshr miss rate for ReadReq accesses (Ratio)
board.cache_hierarchy.l1d-cache-0.ReadReq.mshrMissRate::total     0.030474                       # mshr miss rate for ReadReq accesses (Ratio)
board.cache_hierarchy.l1d-cache-0.ReadReq.avgMshrMissLatency::processor.switch2.core.data  3284.752861                       # average ReadReq mshr miss latency ((Tick/Count))
board.cache_hierarchy.l1d-cache-0.ReadReq.avgMshrMissLatency::total  3284.752861                       # average ReadReq mshr miss latency ((Tick/Count))
board.cache_hierarchy.l1d-cache-0.WriteReq.hits::processor.switch2.core.data      4124550                       # number of WriteReq hits (Count)
board.cache_hierarchy.l1d-cache-0.WriteReq.hits::total      4124550                       # number of WriteReq hits (Count)
board.cache_hierarchy.l1d-cache-0.WriteReq.misses::processor.switch2.core.data        11705                       # number of WriteReq misses (Count)
board.cache_hierarchy.l1d-cache-0.WriteReq.misses::total        11705                       # number of WriteReq misses (Count)
board.cache_hierarchy.l1d-cache-0.WriteReq.missLatency::processor.switch2.core.data     30948687                       # number of WriteReq miss ticks (Tick)
board.cache_hierarchy.l1d-cache-0.WriteReq.missLatency::total     30948687                       # number of WriteReq miss ticks (Tick)
board.cache_hierarchy.l1d-cache-0.WriteReq.accesses::processor.switch2.core.data      4136255                       # number of WriteReq accesses(hits+misses) (Count)
board.cache_hierarchy.l1d-cache-0.WriteReq.accesses::total      4136255                       # number of WriteReq accesses(hits+misses) (Count)
board.cache_hierarchy.l1d-cache-0.WriteReq.missRate::processor.switch2.core.data     0.002830                       # miss rate for WriteReq accesses (Ratio)
board.cache_hierarchy.l1d-cache-0.WriteReq.missRate::total     0.002830                       # miss rate for WriteReq accesses (Ratio)
board.cache_hierarchy.l1d-cache-0.WriteReq.avgMissLatency::processor.switch2.core.data  2644.056984                       # average WriteReq miss latency ((Tick/Count))
board.cache_hierarchy.l1d-cache-0.WriteReq.avgMissLatency::total  2644.056984                       # average WriteReq miss latency ((Tick/Count))
board.cache_hierarchy.l1d-cache-0.WriteReq.mshrHits::processor.switch2.core.data            5                       # number of WriteReq MSHR hits (Count)
board.cache_hierarchy.l1d-cache-0.WriteReq.mshrHits::total            5                       # number of WriteReq MSHR hits (Count)
board.cache_hierarchy.l1d-cache-0.WriteReq.mshrMisses::processor.switch2.core.data        11700                       # number of WriteReq MSHR misses (Count)
board.cache_hierarchy.l1d-cache-0.WriteReq.mshrMisses::total        11700                       # number of WriteReq MSHR misses (Count)
board.cache_hierarchy.l1d-cache-0.WriteReq.mshrMissLatency::processor.switch2.core.data     27042597                       # number of WriteReq MSHR miss ticks (Tick)
board.cache_hierarchy.l1d-cache-0.WriteReq.mshrMissLatency::total     27042597                       # number of WriteReq MSHR miss ticks (Tick)
board.cache_hierarchy.l1d-cache-0.WriteReq.mshrMissRate::processor.switch2.core.data     0.002829                       # mshr miss rate for WriteReq accesses (Ratio)
board.cache_hierarchy.l1d-cache-0.WriteReq.mshrMissRate::total     0.002829                       # mshr miss rate for WriteReq accesses (Ratio)
board.cache_hierarchy.l1d-cache-0.WriteReq.avgMshrMissLatency::processor.switch2.core.data  2311.333077                       # average WriteReq mshr miss latency ((Tick/Count))
board.cache_hierarchy.l1d-cache-0.WriteReq.avgMshrMissLatency::total  2311.333077                       # average WriteReq mshr miss latency ((Tick/Count))
board.cache_hierarchy.l1d-cache-0.power_state.pwrStateResidencyTicks::UNDEFINED 225700565981194                       # Cumulative time (in ticks) in various power states (Tick)
board.cache_hierarchy.l1d-cache-0.tags.tagsInUse          512                       # Average ticks per tags in use ((Tick/Count))
board.cache_hierarchy.l1d-cache-0.tags.totalRefs     16820744                       # Total number of references to valid blocks. (Count)
board.cache_hierarchy.l1d-cache-0.tags.sampledRefs       406715                       # Sample count of references to valid blocks. (Count)
board.cache_hierarchy.l1d-cache-0.tags.avgRefs    41.357570                       # Average number of references to valid blocks. ((Count/Count))
board.cache_hierarchy.l1d-cache-0.tags.warmupTick            0                       # The tick when the warmup percentage was hit. (Tick)
board.cache_hierarchy.l1d-cache-0.tags.occupancies::processor.switch1.core.data     4.065349                       # Average occupied blocks per tick, per requestor ((Count/Tick))
board.cache_hierarchy.l1d-cache-0.tags.occupancies::processor.switch2.core.data   507.934651                       # Average occupied blocks per tick, per requestor ((Count/Tick))
board.cache_hierarchy.l1d-cache-0.tags.avgOccs::processor.switch1.core.data     0.007940                       # Average percentage of cache occupancy ((Ratio/Tick))
board.cache_hierarchy.l1d-cache-0.tags.avgOccs::processor.switch2.core.data     0.992060                       # Average percentage of cache occupancy ((Ratio/Tick))
board.cache_hierarchy.l1d-cache-0.tags.avgOccs::total            1                       # Average percentage of cache occupancy ((Ratio/Tick))
board.cache_hierarchy.l1d-cache-0.tags.occupanciesTaskId::1024          512                       # Occupied blocks per task id (Count)
board.cache_hierarchy.l1d-cache-0.tags.ageTaskId_1024::0          229                       # Occupied blocks per task id, per block age (Count)
board.cache_hierarchy.l1d-cache-0.tags.ageTaskId_1024::1          104                       # Occupied blocks per task id, per block age (Count)
board.cache_hierarchy.l1d-cache-0.tags.ageTaskId_1024::2          134                       # Occupied blocks per task id, per block age (Count)
board.cache_hierarchy.l1d-cache-0.tags.ageTaskId_1024::3           45                       # Occupied blocks per task id, per block age (Count)
board.cache_hierarchy.l1d-cache-0.tags.ratioOccsTaskId::1024            1                       # Ratio of occupied blocks and all blocks, per task id (Ratio)
board.cache_hierarchy.l1d-cache-0.tags.tagAccesses     68733463                       # Number of tag accesses (Count)
board.cache_hierarchy.l1d-cache-0.tags.dataAccesses     68733463                       # Number of data accesses (Count)
board.cache_hierarchy.l1d-cache-0.tags.power_state.pwrStateResidencyTicks::UNDEFINED 225700565981194                       # Cumulative time (in ticks) in various power states (Tick)
board.cache_hierarchy.l1i-cache-0.demandHits::processor.switch2.core.inst      5053985                       # number of demand (read+write) hits (Count)
board.cache_hierarchy.l1i-cache-0.demandHits::total      5053985                       # number of demand (read+write) hits (Count)
board.cache_hierarchy.l1i-cache-0.overallHits::processor.switch2.core.inst      5053985                       # number of overall hits (Count)
board.cache_hierarchy.l1i-cache-0.overallHits::total      5053985                       # number of overall hits (Count)
board.cache_hierarchy.l1i-cache-0.demandMisses::processor.switch2.core.inst            3                       # number of demand (read+write) misses (Count)
board.cache_hierarchy.l1i-cache-0.demandMisses::total            3                       # number of demand (read+write) misses (Count)
board.cache_hierarchy.l1i-cache-0.overallMisses::processor.switch2.core.inst            3                       # number of overall misses (Count)
board.cache_hierarchy.l1i-cache-0.overallMisses::total            3                       # number of overall misses (Count)
board.cache_hierarchy.l1i-cache-0.demandMissLatency::processor.switch2.core.inst       156843                       # number of demand (read+write) miss ticks (Tick)
board.cache_hierarchy.l1i-cache-0.demandMissLatency::total       156843                       # number of demand (read+write) miss ticks (Tick)
board.cache_hierarchy.l1i-cache-0.overallMissLatency::processor.switch2.core.inst       156843                       # number of overall miss ticks (Tick)
board.cache_hierarchy.l1i-cache-0.overallMissLatency::total       156843                       # number of overall miss ticks (Tick)
board.cache_hierarchy.l1i-cache-0.demandAccesses::processor.switch2.core.inst      5053988                       # number of demand (read+write) accesses (Count)
board.cache_hierarchy.l1i-cache-0.demandAccesses::total      5053988                       # number of demand (read+write) accesses (Count)
board.cache_hierarchy.l1i-cache-0.overallAccesses::processor.switch2.core.inst      5053988                       # number of overall (read+write) accesses (Count)
board.cache_hierarchy.l1i-cache-0.overallAccesses::total      5053988                       # number of overall (read+write) accesses (Count)
board.cache_hierarchy.l1i-cache-0.demandMissRate::processor.switch2.core.inst     0.000001                       # miss rate for demand accesses (Ratio)
board.cache_hierarchy.l1i-cache-0.demandMissRate::total     0.000001                       # miss rate for demand accesses (Ratio)
board.cache_hierarchy.l1i-cache-0.overallMissRate::processor.switch2.core.inst     0.000001                       # miss rate for overall accesses (Ratio)
board.cache_hierarchy.l1i-cache-0.overallMissRate::total     0.000001                       # miss rate for overall accesses (Ratio)
board.cache_hierarchy.l1i-cache-0.demandAvgMissLatency::processor.switch2.core.inst        52281                       # average overall miss latency in ticks ((Tick/Count))
board.cache_hierarchy.l1i-cache-0.demandAvgMissLatency::total        52281                       # average overall miss latency in ticks ((Tick/Count))
board.cache_hierarchy.l1i-cache-0.overallAvgMissLatency::processor.switch2.core.inst        52281                       # average overall miss latency ((Tick/Count))
board.cache_hierarchy.l1i-cache-0.overallAvgMissLatency::total        52281                       # average overall miss latency ((Tick/Count))
board.cache_hierarchy.l1i-cache-0.blockedCycles::no_mshrs            0                       # number of cycles access was blocked (Cycle)
board.cache_hierarchy.l1i-cache-0.blockedCycles::no_targets            0                       # number of cycles access was blocked (Cycle)
board.cache_hierarchy.l1i-cache-0.blockedCauses::no_mshrs            0                       # number of times access was blocked (Count)
board.cache_hierarchy.l1i-cache-0.blockedCauses::no_targets            0                       # number of times access was blocked (Count)
board.cache_hierarchy.l1i-cache-0.avgBlocked::no_mshrs          nan                       # average number of cycles each access was blocked ((Cycle/Count))
board.cache_hierarchy.l1i-cache-0.avgBlocked::no_targets          nan                       # average number of cycles each access was blocked ((Cycle/Count))
board.cache_hierarchy.l1i-cache-0.demandMshrHits::processor.switch2.core.inst            1                       # number of demand (read+write) MSHR hits (Count)
board.cache_hierarchy.l1i-cache-0.demandMshrHits::total            1                       # number of demand (read+write) MSHR hits (Count)
board.cache_hierarchy.l1i-cache-0.overallMshrHits::processor.switch2.core.inst            1                       # number of overall MSHR hits (Count)
board.cache_hierarchy.l1i-cache-0.overallMshrHits::total            1                       # number of overall MSHR hits (Count)
board.cache_hierarchy.l1i-cache-0.demandMshrMisses::processor.switch2.core.inst            2                       # number of demand (read+write) MSHR misses (Count)
board.cache_hierarchy.l1i-cache-0.demandMshrMisses::total            2                       # number of demand (read+write) MSHR misses (Count)
board.cache_hierarchy.l1i-cache-0.overallMshrMisses::processor.switch2.core.inst            2                       # number of overall MSHR misses (Count)
board.cache_hierarchy.l1i-cache-0.overallMshrMisses::total            2                       # number of overall MSHR misses (Count)
board.cache_hierarchy.l1i-cache-0.demandMshrMissLatency::processor.switch2.core.inst       131535                       # number of demand (read+write) MSHR miss ticks (Tick)
board.cache_hierarchy.l1i-cache-0.demandMshrMissLatency::total       131535                       # number of demand (read+write) MSHR miss ticks (Tick)
board.cache_hierarchy.l1i-cache-0.overallMshrMissLatency::processor.switch2.core.inst       131535                       # number of overall MSHR miss ticks (Tick)
board.cache_hierarchy.l1i-cache-0.overallMshrMissLatency::total       131535                       # number of overall MSHR miss ticks (Tick)
board.cache_hierarchy.l1i-cache-0.demandMshrMissRate::processor.switch2.core.inst     0.000000                       # mshr miss ratio for demand accesses (Ratio)
board.cache_hierarchy.l1i-cache-0.demandMshrMissRate::total     0.000000                       # mshr miss ratio for demand accesses (Ratio)
board.cache_hierarchy.l1i-cache-0.overallMshrMissRate::processor.switch2.core.inst     0.000000                       # mshr miss ratio for overall accesses (Ratio)
board.cache_hierarchy.l1i-cache-0.overallMshrMissRate::total     0.000000                       # mshr miss ratio for overall accesses (Ratio)
board.cache_hierarchy.l1i-cache-0.demandAvgMshrMissLatency::processor.switch2.core.inst 65767.500000                       # average overall mshr miss latency ((Tick/Count))
board.cache_hierarchy.l1i-cache-0.demandAvgMshrMissLatency::total 65767.500000                       # average overall mshr miss latency ((Tick/Count))
board.cache_hierarchy.l1i-cache-0.overallAvgMshrMissLatency::processor.switch2.core.inst 65767.500000                       # average overall mshr miss latency ((Tick/Count))
board.cache_hierarchy.l1i-cache-0.overallAvgMshrMissLatency::total 65767.500000                       # average overall mshr miss latency ((Tick/Count))
board.cache_hierarchy.l1i-cache-0.replacements            0                       # number of replacements (Count)
board.cache_hierarchy.l1i-cache-0.ReadReq.hits::processor.switch2.core.inst      5053985                       # number of ReadReq hits (Count)
board.cache_hierarchy.l1i-cache-0.ReadReq.hits::total      5053985                       # number of ReadReq hits (Count)
board.cache_hierarchy.l1i-cache-0.ReadReq.misses::processor.switch2.core.inst            3                       # number of ReadReq misses (Count)
board.cache_hierarchy.l1i-cache-0.ReadReq.misses::total            3                       # number of ReadReq misses (Count)
board.cache_hierarchy.l1i-cache-0.ReadReq.missLatency::processor.switch2.core.inst       156843                       # number of ReadReq miss ticks (Tick)
board.cache_hierarchy.l1i-cache-0.ReadReq.missLatency::total       156843                       # number of ReadReq miss ticks (Tick)
board.cache_hierarchy.l1i-cache-0.ReadReq.accesses::processor.switch2.core.inst      5053988                       # number of ReadReq accesses(hits+misses) (Count)
board.cache_hierarchy.l1i-cache-0.ReadReq.accesses::total      5053988                       # number of ReadReq accesses(hits+misses) (Count)
board.cache_hierarchy.l1i-cache-0.ReadReq.missRate::processor.switch2.core.inst     0.000001                       # miss rate for ReadReq accesses (Ratio)
board.cache_hierarchy.l1i-cache-0.ReadReq.missRate::total     0.000001                       # miss rate for ReadReq accesses (Ratio)
board.cache_hierarchy.l1i-cache-0.ReadReq.avgMissLatency::processor.switch2.core.inst        52281                       # average ReadReq miss latency ((Tick/Count))
board.cache_hierarchy.l1i-cache-0.ReadReq.avgMissLatency::total        52281                       # average ReadReq miss latency ((Tick/Count))
board.cache_hierarchy.l1i-cache-0.ReadReq.mshrHits::processor.switch2.core.inst            1                       # number of ReadReq MSHR hits (Count)
board.cache_hierarchy.l1i-cache-0.ReadReq.mshrHits::total            1                       # number of ReadReq MSHR hits (Count)
board.cache_hierarchy.l1i-cache-0.ReadReq.mshrMisses::processor.switch2.core.inst            2                       # number of ReadReq MSHR misses (Count)
board.cache_hierarchy.l1i-cache-0.ReadReq.mshrMisses::total            2                       # number of ReadReq MSHR misses (Count)
board.cache_hierarchy.l1i-cache-0.ReadReq.mshrMissLatency::processor.switch2.core.inst       131535                       # number of ReadReq MSHR miss ticks (Tick)
board.cache_hierarchy.l1i-cache-0.ReadReq.mshrMissLatency::total       131535                       # number of ReadReq MSHR miss ticks (Tick)
board.cache_hierarchy.l1i-cache-0.ReadReq.mshrMissRate::processor.switch2.core.inst     0.000000                       # mshr miss rate for ReadReq accesses (Ratio)
board.cache_hierarchy.l1i-cache-0.ReadReq.mshrMissRate::total     0.000000                       # mshr miss rate for ReadReq accesses (Ratio)
board.cache_hierarchy.l1i-cache-0.ReadReq.avgMshrMissLatency::processor.switch2.core.inst 65767.500000                       # average ReadReq mshr miss latency ((Tick/Count))
board.cache_hierarchy.l1i-cache-0.ReadReq.avgMshrMissLatency::total 65767.500000                       # average ReadReq mshr miss latency ((Tick/Count))
board.cache_hierarchy.l1i-cache-0.power_state.pwrStateResidencyTicks::UNDEFINED 225700565981194                       # Cumulative time (in ticks) in various power states (Tick)
board.cache_hierarchy.l1i-cache-0.tags.tagsInUse   129.786364                       # Average ticks per tags in use ((Tick/Count))
board.cache_hierarchy.l1i-cache-0.tags.totalRefs     24112736                       # Total number of references to valid blocks. (Count)
board.cache_hierarchy.l1i-cache-0.tags.sampledRefs          130                       # Sample count of references to valid blocks. (Count)
board.cache_hierarchy.l1i-cache-0.tags.avgRefs 185482.584615                       # Average number of references to valid blocks. ((Count/Count))
board.cache_hierarchy.l1i-cache-0.tags.warmupTick            0                       # The tick when the warmup percentage was hit. (Tick)
board.cache_hierarchy.l1i-cache-0.tags.occupancies::processor.switch1.core.inst          128                       # Average occupied blocks per tick, per requestor ((Count/Tick))
board.cache_hierarchy.l1i-cache-0.tags.occupancies::processor.switch2.core.inst     1.786364                       # Average occupied blocks per tick, per requestor ((Count/Tick))
board.cache_hierarchy.l1i-cache-0.tags.avgOccs::processor.switch1.core.inst     0.250000                       # Average percentage of cache occupancy ((Ratio/Tick))
board.cache_hierarchy.l1i-cache-0.tags.avgOccs::processor.switch2.core.inst     0.003489                       # Average percentage of cache occupancy ((Ratio/Tick))
board.cache_hierarchy.l1i-cache-0.tags.avgOccs::total     0.253489                       # Average percentage of cache occupancy ((Ratio/Tick))
board.cache_hierarchy.l1i-cache-0.tags.occupanciesTaskId::1024          130                       # Occupied blocks per task id (Count)
board.cache_hierarchy.l1i-cache-0.tags.ageTaskId_1024::4          130                       # Occupied blocks per task id, per block age (Count)
board.cache_hierarchy.l1i-cache-0.tags.ratioOccsTaskId::1024     0.253906                       # Ratio of occupied blocks and all blocks, per task id (Ratio)
board.cache_hierarchy.l1i-cache-0.tags.tagAccesses     20215954                       # Number of tag accesses (Count)
board.cache_hierarchy.l1i-cache-0.tags.dataAccesses     20215954                       # Number of data accesses (Count)
board.cache_hierarchy.l1i-cache-0.tags.power_state.pwrStateResidencyTicks::UNDEFINED 225700565981194                       # Cumulative time (in ticks) in various power states (Tick)
board.cache_hierarchy.l2-cache-0.demandHits::processor.switch2.core.data       397512                       # number of demand (read+write) hits (Count)
board.cache_hierarchy.l2-cache-0.demandHits::total       397512                       # number of demand (read+write) hits (Count)
board.cache_hierarchy.l2-cache-0.overallHits::processor.switch2.core.data       397512                       # number of overall hits (Count)
board.cache_hierarchy.l2-cache-0.overallHits::total       397512                       # number of overall hits (Count)
board.cache_hierarchy.l2-cache-0.demandMisses::processor.switch2.core.inst            2                       # number of demand (read+write) misses (Count)
board.cache_hierarchy.l2-cache-0.demandMisses::processor.switch2.core.data         8691                       # number of demand (read+write) misses (Count)
board.cache_hierarchy.l2-cache-0.demandMisses::total         8693                       # number of demand (read+write) misses (Count)
board.cache_hierarchy.l2-cache-0.overallMisses::processor.switch2.core.inst            2                       # number of overall misses (Count)
board.cache_hierarchy.l2-cache-0.overallMisses::processor.switch2.core.data         8691                       # number of overall misses (Count)
board.cache_hierarchy.l2-cache-0.overallMisses::total         8693                       # number of overall misses (Count)
board.cache_hierarchy.l2-cache-0.demandMissLatency::processor.switch2.core.inst       130203                       # number of demand (read+write) miss ticks (Tick)
board.cache_hierarchy.l2-cache-0.demandMissLatency::processor.switch2.core.data    516018798                       # number of demand (read+write) miss ticks (Tick)
board.cache_hierarchy.l2-cache-0.demandMissLatency::total    516149001                       # number of demand (read+write) miss ticks (Tick)
board.cache_hierarchy.l2-cache-0.overallMissLatency::processor.switch2.core.inst       130203                       # number of overall miss ticks (Tick)
board.cache_hierarchy.l2-cache-0.overallMissLatency::processor.switch2.core.data    516018798                       # number of overall miss ticks (Tick)
board.cache_hierarchy.l2-cache-0.overallMissLatency::total    516149001                       # number of overall miss ticks (Tick)
board.cache_hierarchy.l2-cache-0.demandAccesses::processor.switch2.core.inst            2                       # number of demand (read+write) accesses (Count)
board.cache_hierarchy.l2-cache-0.demandAccesses::processor.switch2.core.data       406203                       # number of demand (read+write) accesses (Count)
board.cache_hierarchy.l2-cache-0.demandAccesses::total       406205                       # number of demand (read+write) accesses (Count)
board.cache_hierarchy.l2-cache-0.overallAccesses::processor.switch2.core.inst            2                       # number of overall (read+write) accesses (Count)
board.cache_hierarchy.l2-cache-0.overallAccesses::processor.switch2.core.data       406203                       # number of overall (read+write) accesses (Count)
board.cache_hierarchy.l2-cache-0.overallAccesses::total       406205                       # number of overall (read+write) accesses (Count)
board.cache_hierarchy.l2-cache-0.demandMissRate::processor.switch2.core.inst            1                       # miss rate for demand accesses (Ratio)
board.cache_hierarchy.l2-cache-0.demandMissRate::processor.switch2.core.data     0.021396                       # miss rate for demand accesses (Ratio)
board.cache_hierarchy.l2-cache-0.demandMissRate::total     0.021401                       # miss rate for demand accesses (Ratio)
board.cache_hierarchy.l2-cache-0.overallMissRate::processor.switch2.core.inst            1                       # miss rate for overall accesses (Ratio)
board.cache_hierarchy.l2-cache-0.overallMissRate::processor.switch2.core.data     0.021396                       # miss rate for overall accesses (Ratio)
board.cache_hierarchy.l2-cache-0.overallMissRate::total     0.021401                       # miss rate for overall accesses (Ratio)
board.cache_hierarchy.l2-cache-0.demandAvgMissLatency::processor.switch2.core.inst 65101.500000                       # average overall miss latency in ticks ((Tick/Count))
board.cache_hierarchy.l2-cache-0.demandAvgMissLatency::processor.switch2.core.data 59373.926821                       # average overall miss latency in ticks ((Tick/Count))
board.cache_hierarchy.l2-cache-0.demandAvgMissLatency::total 59375.244565                       # average overall miss latency in ticks ((Tick/Count))
board.cache_hierarchy.l2-cache-0.overallAvgMissLatency::processor.switch2.core.inst 65101.500000                       # average overall miss latency ((Tick/Count))
board.cache_hierarchy.l2-cache-0.overallAvgMissLatency::processor.switch2.core.data 59373.926821                       # average overall miss latency ((Tick/Count))
board.cache_hierarchy.l2-cache-0.overallAvgMissLatency::total 59375.244565                       # average overall miss latency ((Tick/Count))
board.cache_hierarchy.l2-cache-0.blockedCycles::no_mshrs            0                       # number of cycles access was blocked (Cycle)
board.cache_hierarchy.l2-cache-0.blockedCycles::no_targets            0                       # number of cycles access was blocked (Cycle)
board.cache_hierarchy.l2-cache-0.blockedCauses::no_mshrs            0                       # number of times access was blocked (Count)
board.cache_hierarchy.l2-cache-0.blockedCauses::no_targets            0                       # number of times access was blocked (Count)
board.cache_hierarchy.l2-cache-0.avgBlocked::no_mshrs          nan                       # average number of cycles each access was blocked ((Cycle/Count))
board.cache_hierarchy.l2-cache-0.avgBlocked::no_targets          nan                       # average number of cycles each access was blocked ((Cycle/Count))
board.cache_hierarchy.l2-cache-0.writebacks::writebacks         2570                       # number of writebacks (Count)
board.cache_hierarchy.l2-cache-0.writebacks::total         2570                       # number of writebacks (Count)
board.cache_hierarchy.l2-cache-0.demandMshrMisses::processor.switch2.core.inst            2                       # number of demand (read+write) MSHR misses (Count)
board.cache_hierarchy.l2-cache-0.demandMshrMisses::processor.switch2.core.data         8691                       # number of demand (read+write) MSHR misses (Count)
board.cache_hierarchy.l2-cache-0.demandMshrMisses::total         8693                       # number of demand (read+write) MSHR misses (Count)
board.cache_hierarchy.l2-cache-0.overallMshrMisses::cache_hierarchy.l2-cache-0.prefetcher           21                       # number of overall MSHR misses (Count)
board.cache_hierarchy.l2-cache-0.overallMshrMisses::processor.switch2.core.inst            2                       # number of overall MSHR misses (Count)
board.cache_hierarchy.l2-cache-0.overallMshrMisses::processor.switch2.core.data         8691                       # number of overall MSHR misses (Count)
board.cache_hierarchy.l2-cache-0.overallMshrMisses::total         8714                       # number of overall MSHR misses (Count)
board.cache_hierarchy.l2-cache-0.demandMshrMissLatency::processor.switch2.core.inst       128205                       # number of demand (read+write) MSHR miss ticks (Tick)
board.cache_hierarchy.l2-cache-0.demandMshrMissLatency::processor.switch2.core.data    507336489                       # number of demand (read+write) MSHR miss ticks (Tick)
board.cache_hierarchy.l2-cache-0.demandMshrMissLatency::total    507464694                       # number of demand (read+write) MSHR miss ticks (Tick)
board.cache_hierarchy.l2-cache-0.overallMshrMissLatency::cache_hierarchy.l2-cache-0.prefetcher      1120545                       # number of overall MSHR miss ticks (Tick)
board.cache_hierarchy.l2-cache-0.overallMshrMissLatency::processor.switch2.core.inst       128205                       # number of overall MSHR miss ticks (Tick)
board.cache_hierarchy.l2-cache-0.overallMshrMissLatency::processor.switch2.core.data    507336489                       # number of overall MSHR miss ticks (Tick)
board.cache_hierarchy.l2-cache-0.overallMshrMissLatency::total    508585239                       # number of overall MSHR miss ticks (Tick)
board.cache_hierarchy.l2-cache-0.demandMshrMissRate::processor.switch2.core.inst            1                       # mshr miss ratio for demand accesses (Ratio)
board.cache_hierarchy.l2-cache-0.demandMshrMissRate::processor.switch2.core.data     0.021396                       # mshr miss ratio for demand accesses (Ratio)
board.cache_hierarchy.l2-cache-0.demandMshrMissRate::total     0.021401                       # mshr miss ratio for demand accesses (Ratio)
board.cache_hierarchy.l2-cache-0.overallMshrMissRate::cache_hierarchy.l2-cache-0.prefetcher          inf                       # mshr miss ratio for overall accesses (Ratio)
board.cache_hierarchy.l2-cache-0.overallMshrMissRate::processor.switch2.core.inst            1                       # mshr miss ratio for overall accesses (Ratio)
board.cache_hierarchy.l2-cache-0.overallMshrMissRate::processor.switch2.core.data     0.021396                       # mshr miss ratio for overall accesses (Ratio)
board.cache_hierarchy.l2-cache-0.overallMshrMissRate::total     0.021452                       # mshr miss ratio for overall accesses (Ratio)
board.cache_hierarchy.l2-cache-0.demandAvgMshrMissLatency::processor.switch2.core.inst 64102.500000                       # average overall mshr miss latency ((Tick/Count))
board.cache_hierarchy.l2-cache-0.demandAvgMshrMissLatency::processor.switch2.core.data 58374.926821                       # average overall mshr miss latency ((Tick/Count))
board.cache_hierarchy.l2-cache-0.demandAvgMshrMissLatency::total 58376.244565                       # average overall mshr miss latency ((Tick/Count))
board.cache_hierarchy.l2-cache-0.overallAvgMshrMissLatency::cache_hierarchy.l2-cache-0.prefetcher 53359.285714                       # average overall mshr miss latency ((Tick/Count))
board.cache_hierarchy.l2-cache-0.overallAvgMshrMissLatency::processor.switch2.core.inst 64102.500000                       # average overall mshr miss latency ((Tick/Count))
board.cache_hierarchy.l2-cache-0.overallAvgMshrMissLatency::processor.switch2.core.data 58374.926821                       # average overall mshr miss latency ((Tick/Count))
board.cache_hierarchy.l2-cache-0.overallAvgMshrMissLatency::total 58364.154120                       # average overall mshr miss latency ((Tick/Count))
board.cache_hierarchy.l2-cache-0.replacements         8914                       # number of replacements (Count)
board.cache_hierarchy.l2-cache-0.CleanEvict.mshrMisses::writebacks         1403                       # number of CleanEvict MSHR misses (Count)
board.cache_hierarchy.l2-cache-0.CleanEvict.mshrMisses::total         1403                       # number of CleanEvict MSHR misses (Count)
board.cache_hierarchy.l2-cache-0.CleanEvict.mshrMissRate::writebacks          inf                       # mshr miss rate for CleanEvict accesses (Ratio)
board.cache_hierarchy.l2-cache-0.CleanEvict.mshrMissRate::total          inf                       # mshr miss rate for CleanEvict accesses (Ratio)
board.cache_hierarchy.l2-cache-0.HardPFReq.mshrMisses::cache_hierarchy.l2-cache-0.prefetcher           21                       # number of HardPFReq MSHR misses (Count)
board.cache_hierarchy.l2-cache-0.HardPFReq.mshrMisses::total           21                       # number of HardPFReq MSHR misses (Count)
board.cache_hierarchy.l2-cache-0.HardPFReq.mshrMissLatency::cache_hierarchy.l2-cache-0.prefetcher      1120545                       # number of HardPFReq MSHR miss ticks (Tick)
board.cache_hierarchy.l2-cache-0.HardPFReq.mshrMissLatency::total      1120545                       # number of HardPFReq MSHR miss ticks (Tick)
board.cache_hierarchy.l2-cache-0.HardPFReq.mshrMissRate::cache_hierarchy.l2-cache-0.prefetcher          inf                       # mshr miss rate for HardPFReq accesses (Ratio)
board.cache_hierarchy.l2-cache-0.HardPFReq.mshrMissRate::total          inf                       # mshr miss rate for HardPFReq accesses (Ratio)
board.cache_hierarchy.l2-cache-0.HardPFReq.avgMshrMissLatency::cache_hierarchy.l2-cache-0.prefetcher 53359.285714                       # average HardPFReq mshr miss latency ((Tick/Count))
board.cache_hierarchy.l2-cache-0.HardPFReq.avgMshrMissLatency::total 53359.285714                       # average HardPFReq mshr miss latency ((Tick/Count))
board.cache_hierarchy.l2-cache-0.ReadExReq.hits::processor.switch2.core.data        11638                       # number of ReadExReq hits (Count)
board.cache_hierarchy.l2-cache-0.ReadExReq.hits::total        11638                       # number of ReadExReq hits (Count)
board.cache_hierarchy.l2-cache-0.ReadExReq.misses::processor.switch2.core.data           62                       # number of ReadExReq misses (Count)
board.cache_hierarchy.l2-cache-0.ReadExReq.misses::total           62                       # number of ReadExReq misses (Count)
board.cache_hierarchy.l2-cache-0.ReadExReq.missLatency::processor.switch2.core.data      3640023                       # number of ReadExReq miss ticks (Tick)
board.cache_hierarchy.l2-cache-0.ReadExReq.missLatency::total      3640023                       # number of ReadExReq miss ticks (Tick)
board.cache_hierarchy.l2-cache-0.ReadExReq.accesses::processor.switch2.core.data        11700                       # number of ReadExReq accesses(hits+misses) (Count)
board.cache_hierarchy.l2-cache-0.ReadExReq.accesses::total        11700                       # number of ReadExReq accesses(hits+misses) (Count)
board.cache_hierarchy.l2-cache-0.ReadExReq.missRate::processor.switch2.core.data     0.005299                       # miss rate for ReadExReq accesses (Ratio)
board.cache_hierarchy.l2-cache-0.ReadExReq.missRate::total     0.005299                       # miss rate for ReadExReq accesses (Ratio)
board.cache_hierarchy.l2-cache-0.ReadExReq.avgMissLatency::processor.switch2.core.data 58710.048387                       # average ReadExReq miss latency ((Tick/Count))
board.cache_hierarchy.l2-cache-0.ReadExReq.avgMissLatency::total 58710.048387                       # average ReadExReq miss latency ((Tick/Count))
board.cache_hierarchy.l2-cache-0.ReadExReq.mshrMisses::processor.switch2.core.data           62                       # number of ReadExReq MSHR misses (Count)
board.cache_hierarchy.l2-cache-0.ReadExReq.mshrMisses::total           62                       # number of ReadExReq MSHR misses (Count)
board.cache_hierarchy.l2-cache-0.ReadExReq.mshrMissLatency::processor.switch2.core.data      3578085                       # number of ReadExReq MSHR miss ticks (Tick)
board.cache_hierarchy.l2-cache-0.ReadExReq.mshrMissLatency::total      3578085                       # number of ReadExReq MSHR miss ticks (Tick)
board.cache_hierarchy.l2-cache-0.ReadExReq.mshrMissRate::processor.switch2.core.data     0.005299                       # mshr miss rate for ReadExReq accesses (Ratio)
board.cache_hierarchy.l2-cache-0.ReadExReq.mshrMissRate::total     0.005299                       # mshr miss rate for ReadExReq accesses (Ratio)
board.cache_hierarchy.l2-cache-0.ReadExReq.avgMshrMissLatency::processor.switch2.core.data 57711.048387                       # average ReadExReq mshr miss latency ((Tick/Count))
board.cache_hierarchy.l2-cache-0.ReadExReq.avgMshrMissLatency::total 57711.048387                       # average ReadExReq mshr miss latency ((Tick/Count))
board.cache_hierarchy.l2-cache-0.ReadSharedReq.hits::processor.switch2.core.data       385874                       # number of ReadSharedReq hits (Count)
board.cache_hierarchy.l2-cache-0.ReadSharedReq.hits::total       385874                       # number of ReadSharedReq hits (Count)
board.cache_hierarchy.l2-cache-0.ReadSharedReq.misses::processor.switch2.core.inst            2                       # number of ReadSharedReq misses (Count)
board.cache_hierarchy.l2-cache-0.ReadSharedReq.misses::processor.switch2.core.data         8629                       # number of ReadSharedReq misses (Count)
board.cache_hierarchy.l2-cache-0.ReadSharedReq.misses::total         8631                       # number of ReadSharedReq misses (Count)
board.cache_hierarchy.l2-cache-0.ReadSharedReq.missLatency::processor.switch2.core.inst       130203                       # number of ReadSharedReq miss ticks (Tick)
board.cache_hierarchy.l2-cache-0.ReadSharedReq.missLatency::processor.switch2.core.data    512378775                       # number of ReadSharedReq miss ticks (Tick)
board.cache_hierarchy.l2-cache-0.ReadSharedReq.missLatency::total    512508978                       # number of ReadSharedReq miss ticks (Tick)
board.cache_hierarchy.l2-cache-0.ReadSharedReq.accesses::processor.switch2.core.inst            2                       # number of ReadSharedReq accesses(hits+misses) (Count)
board.cache_hierarchy.l2-cache-0.ReadSharedReq.accesses::processor.switch2.core.data       394503                       # number of ReadSharedReq accesses(hits+misses) (Count)
board.cache_hierarchy.l2-cache-0.ReadSharedReq.accesses::total       394505                       # number of ReadSharedReq accesses(hits+misses) (Count)
board.cache_hierarchy.l2-cache-0.ReadSharedReq.missRate::processor.switch2.core.inst            1                       # miss rate for ReadSharedReq accesses (Ratio)
board.cache_hierarchy.l2-cache-0.ReadSharedReq.missRate::processor.switch2.core.data     0.021873                       # miss rate for ReadSharedReq accesses (Ratio)
board.cache_hierarchy.l2-cache-0.ReadSharedReq.missRate::total     0.021878                       # miss rate for ReadSharedReq accesses (Ratio)
board.cache_hierarchy.l2-cache-0.ReadSharedReq.avgMissLatency::processor.switch2.core.inst 65101.500000                       # average ReadSharedReq miss latency ((Tick/Count))
board.cache_hierarchy.l2-cache-0.ReadSharedReq.avgMissLatency::processor.switch2.core.data 59378.696836                       # average ReadSharedReq miss latency ((Tick/Count))
board.cache_hierarchy.l2-cache-0.ReadSharedReq.avgMissLatency::total 59380.022941                       # average ReadSharedReq miss latency ((Tick/Count))
board.cache_hierarchy.l2-cache-0.ReadSharedReq.mshrMisses::processor.switch2.core.inst            2                       # number of ReadSharedReq MSHR misses (Count)
board.cache_hierarchy.l2-cache-0.ReadSharedReq.mshrMisses::processor.switch2.core.data         8629                       # number of ReadSharedReq MSHR misses (Count)
board.cache_hierarchy.l2-cache-0.ReadSharedReq.mshrMisses::total         8631                       # number of ReadSharedReq MSHR misses (Count)
board.cache_hierarchy.l2-cache-0.ReadSharedReq.mshrMissLatency::processor.switch2.core.inst       128205                       # number of ReadSharedReq MSHR miss ticks (Tick)
board.cache_hierarchy.l2-cache-0.ReadSharedReq.mshrMissLatency::processor.switch2.core.data    503758404                       # number of ReadSharedReq MSHR miss ticks (Tick)
board.cache_hierarchy.l2-cache-0.ReadSharedReq.mshrMissLatency::total    503886609                       # number of ReadSharedReq MSHR miss ticks (Tick)
board.cache_hierarchy.l2-cache-0.ReadSharedReq.mshrMissRate::processor.switch2.core.inst            1                       # mshr miss rate for ReadSharedReq accesses (Ratio)
board.cache_hierarchy.l2-cache-0.ReadSharedReq.mshrMissRate::processor.switch2.core.data     0.021873                       # mshr miss rate for ReadSharedReq accesses (Ratio)
board.cache_hierarchy.l2-cache-0.ReadSharedReq.mshrMissRate::total     0.021878                       # mshr miss rate for ReadSharedReq accesses (Ratio)
board.cache_hierarchy.l2-cache-0.ReadSharedReq.avgMshrMissLatency::processor.switch2.core.inst 64102.500000                       # average ReadSharedReq mshr miss latency ((Tick/Count))
board.cache_hierarchy.l2-cache-0.ReadSharedReq.avgMshrMissLatency::processor.switch2.core.data 58379.696836                       # average ReadSharedReq mshr miss latency ((Tick/Count))
board.cache_hierarchy.l2-cache-0.ReadSharedReq.avgMshrMissLatency::total 58381.022941                       # average ReadSharedReq mshr miss latency ((Tick/Count))
board.cache_hierarchy.l2-cache-0.WritebackDirty.hits::writebacks       108753                       # number of WritebackDirty hits (Count)
board.cache_hierarchy.l2-cache-0.WritebackDirty.hits::total       108753                       # number of WritebackDirty hits (Count)
board.cache_hierarchy.l2-cache-0.WritebackDirty.accesses::writebacks       108753                       # number of WritebackDirty accesses(hits+misses) (Count)
board.cache_hierarchy.l2-cache-0.WritebackDirty.accesses::total       108753                       # number of WritebackDirty accesses(hits+misses) (Count)
board.cache_hierarchy.l2-cache-0.power_state.pwrStateResidencyTicks::UNDEFINED 225700565981194                       # Cumulative time (in ticks) in various power states (Tick)
board.cache_hierarchy.l2-cache-0.prefetcher.demandMshrMisses         8693                       # demands not covered by prefetchs (Count)
board.cache_hierarchy.l2-cache-0.prefetcher.pfIssued           37                       # number of hwpf issued (Count)
board.cache_hierarchy.l2-cache-0.prefetcher.pfUnused           11                       # number of HardPF blocks evicted w/o reference (Count)
board.cache_hierarchy.l2-cache-0.prefetcher.pfUseful            2                       # number of useful prefetch (Count)
board.cache_hierarchy.l2-cache-0.prefetcher.pfUsefulButMiss            0                       # number of hit on prefetch but cache block is not in an usable state (Count)
board.cache_hierarchy.l2-cache-0.prefetcher.accuracy     0.054054                       # accuracy of the prefetcher (Count)
board.cache_hierarchy.l2-cache-0.prefetcher.coverage     0.000230                       # coverage brought by this prefetcher (Count)
board.cache_hierarchy.l2-cache-0.prefetcher.pfHitInCache           16                       # number of prefetches hitting in cache (Count)
board.cache_hierarchy.l2-cache-0.prefetcher.pfHitInMSHR            0                       # number of prefetches hitting in a MSHR (Count)
board.cache_hierarchy.l2-cache-0.prefetcher.pfHitInWB            0                       # number of prefetches hit in the Write Buffer (Count)
board.cache_hierarchy.l2-cache-0.prefetcher.pfLate           16                       # number of late prefetches (hitting in cache, MSHR or WB) (Count)
board.cache_hierarchy.l2-cache-0.prefetcher.pfIdentified           37                       # number of prefetch candidates identified (Count)
board.cache_hierarchy.l2-cache-0.prefetcher.pfBufferHit            0                       # number of redundant prefetches already in prefetch queue (Count)
board.cache_hierarchy.l2-cache-0.prefetcher.pfInCache            0                       # number of redundant prefetches already in cache/mshr dropped (Count)
board.cache_hierarchy.l2-cache-0.prefetcher.pfRemovedDemand            0                       # number of prefetches dropped due to a demand for the same address (Count)
board.cache_hierarchy.l2-cache-0.prefetcher.pfRemovedFull            0                       # number of prefetches dropped due to prefetch queue size (Count)
board.cache_hierarchy.l2-cache-0.prefetcher.pfSpanPage           34                       # number of prefetches that crossed the page (Count)
board.cache_hierarchy.l2-cache-0.prefetcher.pfUsefulSpanPage            0                       # number of prefetches that is useful and crossed the page (Count)
board.cache_hierarchy.l2-cache-0.prefetcher.power_state.pwrStateResidencyTicks::UNDEFINED 225700565981194                       # Cumulative time (in ticks) in various power states (Tick)
board.cache_hierarchy.l2-cache-0.tags.tagsInUse         4096                       # Average ticks per tags in use ((Tick/Count))
board.cache_hierarchy.l2-cache-0.tags.totalRefs      1717723                       # Total number of references to valid blocks. (Count)
board.cache_hierarchy.l2-cache-0.tags.sampledRefs        13010                       # Sample count of references to valid blocks. (Count)
board.cache_hierarchy.l2-cache-0.tags.avgRefs   132.030976                       # Average number of references to valid blocks. ((Count/Count))
board.cache_hierarchy.l2-cache-0.tags.warmupTick            0                       # The tick when the warmup percentage was hit. (Tick)
board.cache_hierarchy.l2-cache-0.tags.occupancies::writebacks   100.723629                       # Average occupied blocks per tick, per requestor ((Count/Tick))
board.cache_hierarchy.l2-cache-0.tags.occupancies::cache_hierarchy.l2-cache-0.prefetcher     5.892250                       # Average occupied blocks per tick, per requestor ((Count/Tick))
board.cache_hierarchy.l2-cache-0.tags.occupancies::processor.switch1.core.data  1292.782106                       # Average occupied blocks per tick, per requestor ((Count/Tick))
board.cache_hierarchy.l2-cache-0.tags.occupancies::processor.switch2.core.inst     0.043935                       # Average occupied blocks per tick, per requestor ((Count/Tick))
board.cache_hierarchy.l2-cache-0.tags.occupancies::processor.switch2.core.data  2696.558080                       # Average occupied blocks per tick, per requestor ((Count/Tick))
board.cache_hierarchy.l2-cache-0.tags.avgOccs::writebacks     0.024591                       # Average percentage of cache occupancy ((Ratio/Tick))
board.cache_hierarchy.l2-cache-0.tags.avgOccs::cache_hierarchy.l2-cache-0.prefetcher     0.001439                       # Average percentage of cache occupancy ((Ratio/Tick))
board.cache_hierarchy.l2-cache-0.tags.avgOccs::processor.switch1.core.data     0.315621                       # Average percentage of cache occupancy ((Ratio/Tick))
board.cache_hierarchy.l2-cache-0.tags.avgOccs::processor.switch2.core.inst     0.000011                       # Average percentage of cache occupancy ((Ratio/Tick))
board.cache_hierarchy.l2-cache-0.tags.avgOccs::processor.switch2.core.data     0.658339                       # Average percentage of cache occupancy ((Ratio/Tick))
board.cache_hierarchy.l2-cache-0.tags.avgOccs::total            1                       # Average percentage of cache occupancy ((Ratio/Tick))
board.cache_hierarchy.l2-cache-0.tags.occupanciesTaskId::1022           14                       # Occupied blocks per task id (Count)
board.cache_hierarchy.l2-cache-0.tags.occupanciesTaskId::1024         4082                       # Occupied blocks per task id (Count)
board.cache_hierarchy.l2-cache-0.tags.ageTaskId_1022::0            1                       # Occupied blocks per task id, per block age (Count)
board.cache_hierarchy.l2-cache-0.tags.ageTaskId_1022::1           10                       # Occupied blocks per task id, per block age (Count)
board.cache_hierarchy.l2-cache-0.tags.ageTaskId_1022::3            2                       # Occupied blocks per task id, per block age (Count)
board.cache_hierarchy.l2-cache-0.tags.ageTaskId_1022::4            1                       # Occupied blocks per task id, per block age (Count)
board.cache_hierarchy.l2-cache-0.tags.ageTaskId_1024::0            2                       # Occupied blocks per task id, per block age (Count)
board.cache_hierarchy.l2-cache-0.tags.ageTaskId_1024::1           20                       # Occupied blocks per task id, per block age (Count)
board.cache_hierarchy.l2-cache-0.tags.ageTaskId_1024::2          123                       # Occupied blocks per task id, per block age (Count)
board.cache_hierarchy.l2-cache-0.tags.ageTaskId_1024::3         2852                       # Occupied blocks per task id, per block age (Count)
board.cache_hierarchy.l2-cache-0.tags.ageTaskId_1024::4         1085                       # Occupied blocks per task id, per block age (Count)
board.cache_hierarchy.l2-cache-0.tags.ratioOccsTaskId::1022     0.003418                       # Ratio of occupied blocks and all blocks, per task id (Ratio)
board.cache_hierarchy.l2-cache-0.tags.ratioOccsTaskId::1024     0.996582                       # Ratio of occupied blocks and all blocks, per task id (Ratio)
board.cache_hierarchy.l2-cache-0.tags.tagAccesses      6508178                       # Number of tag accesses (Count)
board.cache_hierarchy.l2-cache-0.tags.dataAccesses      6508178                       # Number of data accesses (Count)
board.cache_hierarchy.l2-cache-0.tags.power_state.pwrStateResidencyTicks::UNDEFINED 225700565981194                       # Cumulative time (in ticks) in various power states (Tick)
board.cache_hierarchy.l2buses.transDist::ReadResp       394505                       # Transaction distribution (Count)
board.cache_hierarchy.l2buses.transDist::WritebackDirty       111323                       # Transaction distribution (Count)
board.cache_hierarchy.l2buses.transDist::CleanEvict       303794                       # Transaction distribution (Count)
board.cache_hierarchy.l2buses.transDist::HardPFReq           21                       # Transaction distribution (Count)
board.cache_hierarchy.l2buses.transDist::ReadExReq        11700                       # Transaction distribution (Count)
board.cache_hierarchy.l2buses.transDist::ReadExResp        11700                       # Transaction distribution (Count)
board.cache_hierarchy.l2buses.transDist::ReadSharedReq       394505                       # Transaction distribution (Count)
board.cache_hierarchy.l2buses.pktCount_board.cache_hierarchy.l1i-cache-0.mem_side_port::board.cache_hierarchy.l2-cache-0.cpu_side_port            4                       # Packet count per connected requestor and responder (Count)
board.cache_hierarchy.l2buses.pktCount_board.cache_hierarchy.l1d-cache-0.mem_side_port::board.cache_hierarchy.l2-cache-0.cpu_side_port      1218609                       # Packet count per connected requestor and responder (Count)
board.cache_hierarchy.l2buses.pktCount::total      1218613                       # Packet count per connected requestor and responder (Count)
board.cache_hierarchy.l2buses.pktSize_board.cache_hierarchy.l1i-cache-0.mem_side_port::board.cache_hierarchy.l2-cache-0.cpu_side_port          128                       # Cumulative packet size per connected requestor and responder (Byte)
board.cache_hierarchy.l2buses.pktSize_board.cache_hierarchy.l1d-cache-0.mem_side_port::board.cache_hierarchy.l2-cache-0.cpu_side_port     32957184                       # Cumulative packet size per connected requestor and responder (Byte)
board.cache_hierarchy.l2buses.pktSize::total     32957312                       # Cumulative packet size per connected requestor and responder (Byte)
board.cache_hierarchy.l2buses.snoops             8935                       # Total snoops (Count)
board.cache_hierarchy.l2buses.snoopTraffic       164480                       # Total snoop traffic (Byte)
board.cache_hierarchy.l2buses.snoopFanout::samples       415140                       # Request fanout histogram (Count)
board.cache_hierarchy.l2buses.snoopFanout::mean     0.003796                       # Request fanout histogram (Count)
board.cache_hierarchy.l2buses.snoopFanout::stdev     0.061497                       # Request fanout histogram (Count)
board.cache_hierarchy.l2buses.snoopFanout::underflows            0      0.00%      0.00% # Request fanout histogram (Count)
board.cache_hierarchy.l2buses.snoopFanout::0       413564     99.62%     99.62% # Request fanout histogram (Count)
board.cache_hierarchy.l2buses.snoopFanout::1         1576      0.38%    100.00% # Request fanout histogram (Count)
board.cache_hierarchy.l2buses.snoopFanout::2            0      0.00%    100.00% # Request fanout histogram (Count)
board.cache_hierarchy.l2buses.snoopFanout::overflows            0      0.00%    100.00% # Request fanout histogram (Count)
board.cache_hierarchy.l2buses.snoopFanout::min_value            0                       # Request fanout histogram (Count)
board.cache_hierarchy.l2buses.snoopFanout::max_value            1                       # Request fanout histogram (Count)
board.cache_hierarchy.l2buses.snoopFanout::total       415140                       # Request fanout histogram (Count)
board.cache_hierarchy.l2buses.power_state.pwrStateResidencyTicks::UNDEFINED 225700565981194                       # Cumulative time (in ticks) in various power states (Tick)
board.cache_hierarchy.l2buses.reqLayer0.occupancy    342961362                       # Layer occupancy (ticks) (Tick)
board.cache_hierarchy.l2buses.reqLayer0.utilization          0.0                       # Layer utilization (Ratio)
board.cache_hierarchy.l2buses.respLayer0.occupancy         1998                       # Layer occupancy (ticks) (Tick)
board.cache_hierarchy.l2buses.respLayer0.utilization          0.0                       # Layer utilization (Ratio)
board.cache_hierarchy.l2buses.respLayer1.occupancy    405796797                       # Layer occupancy (ticks) (Tick)
board.cache_hierarchy.l2buses.respLayer1.utilization          0.0                       # Layer utilization (Ratio)
board.cache_hierarchy.l2buses.snoop_filter.totRequests       812408                       # Total number of requests made to the snoop filter. (Count)
board.cache_hierarchy.l2buses.snoop_filter.hitSingleRequests       406203                       # Number of requests hitting in the snoop filter with a single holder of the requested data. (Count)
board.cache_hierarchy.l2buses.snoop_filter.hitMultiRequests            0                       # Number of requests hitting in the snoop filter with multiple (>1) holders of the requested data. (Count)
board.cache_hierarchy.l2buses.snoop_filter.totSnoops         1576                       # Total number of snoops made to the snoop filter. (Count)
board.cache_hierarchy.l2buses.snoop_filter.hitSingleSnoops         1576                       # Number of snoops hitting in the snoop filter with a single holder of the requested data. (Count)
board.cache_hierarchy.l2buses.snoop_filter.hitMultiSnoops            0                       # Number of snoops hitting in the snoop filter with multiple (>1) holders of the requested data. (Count)
board.cache_hierarchy.membus.transDist::ReadResp         8652                       # Transaction distribution (Count)
board.cache_hierarchy.membus.transDist::WritebackDirty         2570                       # Transaction distribution (Count)
board.cache_hierarchy.membus.transDist::CleanEvict         6171                       # Transaction distribution (Count)
board.cache_hierarchy.membus.transDist::ReadExReq           62                       # Transaction distribution (Count)
board.cache_hierarchy.membus.transDist::ReadExResp           62                       # Transaction distribution (Count)
board.cache_hierarchy.membus.transDist::ReadSharedReq         8652                       # Transaction distribution (Count)
board.cache_hierarchy.membus.pktCount_board.cache_hierarchy.l2-cache-0.mem_side_port::board.memory.mem_ctrl.port        26169                       # Packet count per connected requestor and responder (Count)
board.cache_hierarchy.membus.pktCount_board.cache_hierarchy.l2-cache-0.mem_side_port::total        26169                       # Packet count per connected requestor and responder (Count)
board.cache_hierarchy.membus.pktCount::total        26169                       # Packet count per connected requestor and responder (Count)
board.cache_hierarchy.membus.pktSize_board.cache_hierarchy.l2-cache-0.mem_side_port::board.memory.mem_ctrl.port       722176                       # Cumulative packet size per connected requestor and responder (Byte)
board.cache_hierarchy.membus.pktSize_board.cache_hierarchy.l2-cache-0.mem_side_port::total       722176                       # Cumulative packet size per connected requestor and responder (Byte)
board.cache_hierarchy.membus.pktSize::total       722176                       # Cumulative packet size per connected requestor and responder (Byte)
board.cache_hierarchy.membus.snoops                 0                       # Total snoops (Count)
board.cache_hierarchy.membus.snoopTraffic            0                       # Total snoop traffic (Byte)
board.cache_hierarchy.membus.snoopFanout::samples         8714                       # Request fanout histogram (Count)
board.cache_hierarchy.membus.snoopFanout::mean            0                       # Request fanout histogram (Count)
board.cache_hierarchy.membus.snoopFanout::stdev            0                       # Request fanout histogram (Count)
board.cache_hierarchy.membus.snoopFanout::underflows            0      0.00%      0.00% # Request fanout histogram (Count)
board.cache_hierarchy.membus.snoopFanout::0         8714    100.00%    100.00% # Request fanout histogram (Count)
board.cache_hierarchy.membus.snoopFanout::1            0      0.00%    100.00% # Request fanout histogram (Count)
board.cache_hierarchy.membus.snoopFanout::overflows            0      0.00%    100.00% # Request fanout histogram (Count)
board.cache_hierarchy.membus.snoopFanout::min_value            0                       # Request fanout histogram (Count)
board.cache_hierarchy.membus.snoopFanout::max_value            0                       # Request fanout histogram (Count)
board.cache_hierarchy.membus.snoopFanout::total         8714                       # Request fanout histogram (Count)
board.cache_hierarchy.membus.badaddr_responder.power_state.pwrStateResidencyTicks::UNDEFINED 225700565981194                       # Cumulative time (in ticks) in various power states (Tick)
board.cache_hierarchy.membus.power_state.pwrStateResidencyTicks::UNDEFINED 225700565981194                       # Cumulative time (in ticks) in various power states (Tick)
board.cache_hierarchy.membus.reqLayer0.occupancy      6668325                       # Layer occupancy (ticks) (Tick)
board.cache_hierarchy.membus.reqLayer0.utilization          0.0                       # Layer utilization (Ratio)
board.cache_hierarchy.membus.respLayer1.occupancy      7192130                       # Layer occupancy (ticks) (Tick)
board.cache_hierarchy.membus.respLayer1.utilization          0.0                       # Layer utilization (Ratio)
board.cache_hierarchy.membus.snoop_filter.totRequests        17455                       # Total number of requests made to the snoop filter. (Count)
board.cache_hierarchy.membus.snoop_filter.hitSingleRequests         8741                       # Number of requests hitting in the snoop filter with a single holder of the requested data. (Count)
board.cache_hierarchy.membus.snoop_filter.hitMultiRequests            0                       # Number of requests hitting in the snoop filter with multiple (>1) holders of the requested data. (Count)
board.cache_hierarchy.membus.snoop_filter.totSnoops            0                       # Total number of snoops made to the snoop filter. (Count)
board.cache_hierarchy.membus.snoop_filter.hitSingleSnoops            0                       # Number of snoops hitting in the snoop filter with a single holder of the requested data. (Count)
board.cache_hierarchy.membus.snoop_filter.hitMultiSnoops            0                       # Number of snoops hitting in the snoop filter with multiple (>1) holders of the requested data. (Count)
board.clk_domain.clock                            333                       # Clock period in ticks (Tick)
board.clk_domain.voltage_domain.voltage             1                       # Voltage in Volts (Volt)
board.memory.mem_ctrl.avgPriority_writebacks::samples      2570.00                       # Average QoS priority value for accepted requests (Count)
board.memory.mem_ctrl.avgPriority_cache_hierarchy.l2-cache-0.prefetcher::samples        21.00                       # Average QoS priority value for accepted requests (Count)
board.memory.mem_ctrl.avgPriority_processor.switch2.core.inst::samples         2.00                       # Average QoS priority value for accepted requests (Count)
board.memory.mem_ctrl.avgPriority_processor.switch2.core.data::samples      8670.00                       # Average QoS priority value for accepted requests (Count)
board.memory.mem_ctrl.priorityMinLatency 0.000000018750                       # per QoS priority minimum request to response latency (Second)
board.memory.mem_ctrl.priorityMaxLatency 0.003277721530                       # per QoS priority maximum request to response latency (Second)
board.memory.mem_ctrl.numReadWriteTurnArounds          150                       # Number of turnarounds from READ to WRITE (Count)
board.memory.mem_ctrl.numWriteReadTurnArounds          150                       # Number of turnarounds from WRITE to READ (Count)
board.memory.mem_ctrl.numStayReadState          23073                       # Number of times bus staying in READ state (Count)
board.memory.mem_ctrl.numStayWriteState          2398                       # Number of times bus staying in WRITE state (Count)
board.memory.mem_ctrl.readReqs                   8714                       # Number of read requests accepted (Count)
board.memory.mem_ctrl.writeReqs                  2570                       # Number of write requests accepted (Count)
board.memory.mem_ctrl.readBursts                 8714                       # Number of controller read bursts, including those serviced by the write queue (Count)
board.memory.mem_ctrl.writeBursts                2570                       # Number of controller write bursts, including those merged in the write queue (Count)
board.memory.mem_ctrl.servicedByWrQ                21                       # Number of controller read bursts serviced by the write queue (Count)
board.memory.mem_ctrl.mergedWrBursts                0                       # Number of controller write bursts merged with an existing one (Count)
board.memory.mem_ctrl.neitherReadNorWriteReqs            0                       # Number of requests that are neither read nor write (Count)
board.memory.mem_ctrl.avgRdQLen                  1.17                       # Average read queue length when enqueuing ((Count/Tick))
board.memory.mem_ctrl.avgWrQLen                 25.03                       # Average write queue length when enqueuing ((Count/Tick))
board.memory.mem_ctrl.numRdRetry                    0                       # Number of times read queue was full causing retry (Count)
board.memory.mem_ctrl.numWrRetry                    0                       # Number of times write queue was full causing retry (Count)
board.memory.mem_ctrl.readPktSize::0                0                       # Read request sizes (log2) (Count)
board.memory.mem_ctrl.readPktSize::1                0                       # Read request sizes (log2) (Count)
board.memory.mem_ctrl.readPktSize::2                0                       # Read request sizes (log2) (Count)
board.memory.mem_ctrl.readPktSize::3                0                       # Read request sizes (log2) (Count)
board.memory.mem_ctrl.readPktSize::4                0                       # Read request sizes (log2) (Count)
board.memory.mem_ctrl.readPktSize::5                0                       # Read request sizes (log2) (Count)
board.memory.mem_ctrl.readPktSize::6             8714                       # Read request sizes (log2) (Count)
board.memory.mem_ctrl.writePktSize::0               0                       # Write request sizes (log2) (Count)
board.memory.mem_ctrl.writePktSize::1               0                       # Write request sizes (log2) (Count)
board.memory.mem_ctrl.writePktSize::2               0                       # Write request sizes (log2) (Count)
board.memory.mem_ctrl.writePktSize::3               0                       # Write request sizes (log2) (Count)
board.memory.mem_ctrl.writePktSize::4               0                       # Write request sizes (log2) (Count)
board.memory.mem_ctrl.writePktSize::5               0                       # Write request sizes (log2) (Count)
board.memory.mem_ctrl.writePktSize::6            2570                       # Write request sizes (log2) (Count)
board.memory.mem_ctrl.rdQLenPdf::0               5130                       # What read queue length does an incoming req see (Count)
board.memory.mem_ctrl.rdQLenPdf::1               1689                       # What read queue length does an incoming req see (Count)
board.memory.mem_ctrl.rdQLenPdf::2                580                       # What read queue length does an incoming req see (Count)
board.memory.mem_ctrl.rdQLenPdf::3                895                       # What read queue length does an incoming req see (Count)
board.memory.mem_ctrl.rdQLenPdf::4                295                       # What read queue length does an incoming req see (Count)
board.memory.mem_ctrl.rdQLenPdf::5                 90                       # What read queue length does an incoming req see (Count)
board.memory.mem_ctrl.rdQLenPdf::6                 14                       # What read queue length does an incoming req see (Count)
board.memory.mem_ctrl.rdQLenPdf::7                  0                       # What read queue length does an incoming req see (Count)
board.memory.mem_ctrl.rdQLenPdf::8                  0                       # What read queue length does an incoming req see (Count)
board.memory.mem_ctrl.rdQLenPdf::9                  0                       # What read queue length does an incoming req see (Count)
board.memory.mem_ctrl.rdQLenPdf::10                 0                       # What read queue length does an incoming req see (Count)
board.memory.mem_ctrl.rdQLenPdf::11                 0                       # What read queue length does an incoming req see (Count)
board.memory.mem_ctrl.rdQLenPdf::12                 0                       # What read queue length does an incoming req see (Count)
board.memory.mem_ctrl.rdQLenPdf::13                 0                       # What read queue length does an incoming req see (Count)
board.memory.mem_ctrl.rdQLenPdf::14                 0                       # What read queue length does an incoming req see (Count)
board.memory.mem_ctrl.rdQLenPdf::15                 0                       # What read queue length does an incoming req see (Count)
board.memory.mem_ctrl.rdQLenPdf::16                 0                       # What read queue length does an incoming req see (Count)
board.memory.mem_ctrl.rdQLenPdf::17                 0                       # What read queue length does an incoming req see (Count)
board.memory.mem_ctrl.rdQLenPdf::18                 0                       # What read queue length does an incoming req see (Count)
board.memory.mem_ctrl.rdQLenPdf::19                 0                       # What read queue length does an incoming req see (Count)
board.memory.mem_ctrl.rdQLenPdf::20                 0                       # What read queue length does an incoming req see (Count)
board.memory.mem_ctrl.rdQLenPdf::21                 0                       # What read queue length does an incoming req see (Count)
board.memory.mem_ctrl.rdQLenPdf::22                 0                       # What read queue length does an incoming req see (Count)
[...]
board.processor.switch2.core.executeStats0.numMiscRegReads     22456244                       # Number of times the Misc registers were read (Count)
board.processor.switch2.core.executeStats0.numVecAluAccesses            0                       # Number of vector alu accesses (Count)
board.processor.switch2.core.executeStats0.numDiscardedOps            0                       # Number of ops (including micro ops) which were discarded before commit (Count)
board.processor.switch2.core.fetch.predictedBranches      1801844                       # Number of branches that fetch has predicted taken (Count)
board.processor.switch2.core.fetch.cycles     43261080                       # Number of cycles fetch has run and was not squashing or blocked (Cycle)
board.processor.switch2.core.fetch.squashCycles       134838                       # Number of cycles fetch has spent squashing (Cycle)
board.processor.switch2.core.fetch.cacheLines      5053988                       # Number of cache lines fetched (Count)
board.processor.switch2.core.fetch.icacheSquashes            3                       # Number of outstanding Icache misses that were squashed (Count)
board.processor.switch2.core.fetch.nisnDist::samples     43387231                       # Number of instructions fetched each cycle (Total) (Count)
board.processor.switch2.core.fetch.nisnDist::mean     1.831129                       # Number of instructions fetched each cycle (Total) (Count)
board.processor.switch2.core.fetch.nisnDist::stdev     0.490284                       # Number of instructions fetched each cycle (Total) (Count)
board.processor.switch2.core.fetch.nisnDist::underflows            0      0.00%      0.00% # Number of instructions fetched each cycle (Total) (Count)
board.processor.switch2.core.fetch.nisnDist::0      2169891      5.00%      5.00% # Number of instructions fetched each cycle (Total) (Count)
board.processor.switch2.core.fetch.nisnDist::1      2987070      6.88%     11.89% # Number of instructions fetched each cycle (Total) (Count)
board.processor.switch2.core.fetch.nisnDist::2     38230270     88.11%    100.00% # Number of instructions fetched each cycle (Total) (Count)
board.processor.switch2.core.fetch.nisnDist::overflows            0      0.00%    100.00% # Number of instructions fetched each cycle (Total) (Count)
board.processor.switch2.core.fetch.nisnDist::min_value            0                       # Number of instructions fetched each cycle (Total) (Count)
board.processor.switch2.core.fetch.nisnDist::max_value            2                       # Number of instructions fetched each cycle (Total) (Count)
board.processor.switch2.core.fetch.nisnDist::total     43387231                       # Number of instructions fetched each cycle (Total) (Count)
board.processor.switch2.core.fetchStats0.numInsts     54432515                       # Number of instructions fetched (thread level) (Count)
board.processor.switch2.core.fetchStats0.numOps            0                       # Number of ops (including micro ops) fetched (thread level) (Count)
board.processor.switch2.core.fetchStats0.fetchRate     1.254575                       # Number of inst fetches per cycle ((Count/Cycle))
board.processor.switch2.core.fetchStats0.numBranches      2403692                       # Number of branches fetched (Count)
board.processor.switch2.core.fetchStats0.branchRate     0.055401                       # Number of branch fetches per cycle (Ratio)
board.processor.switch2.core.fetchStats0.icacheStallCycles        58732                       # ICache total stall cycles (Cycle)
board.processor.switch2.core.fetchStats0.numFetchSuspends            0                       # Number of times Execute suspended instruction fetching (Count)
board.processor.switch2.core.iew.idleCycles            0                       # Number of cycles IEW is idle (Cycle)
board.processor.switch2.core.iew.squashCycles        67403                       # Number of cycles IEW is squashing (Cycle)
board.processor.switch2.core.iew.blockCycles       235923                       # Number of cycles IEW is blocking (Cycle)
board.processor.switch2.core.iew.unblockCycles        68093                       # Number of cycles IEW is unblocking (Cycle)
board.processor.switch2.core.iew.dispatchedInsts     78858247                       # Number of instructions dispatched to IQ (Count)
board.processor.switch2.core.iew.dispSquashedInsts       111446                       # Number of squashed instructions skipped by dispatch (Count)
board.processor.switch2.core.iew.dispLoadInsts     13272769                       # Number of dispatched load instructions (Count)
board.processor.switch2.core.iew.dispStoreInsts      4151784                       # Number of dispatched store instructions (Count)
board.processor.switch2.core.iew.dispNonSpecInsts            0                       # Number of dispatched non-speculative instructions (Count)
board.processor.switch2.core.iew.iqFullEvents          855                       # Number of times the IQ has become full, causing a stall (Count)
board.processor.switch2.core.iew.lsqFullEvents        66066                       # Number of times the LSQ has become full, causing a stall (Count)
board.processor.switch2.core.iew.memOrderViolationEvents          649                       # Number of memory order violations (Count)
board.processor.switch2.core.iew.predictedTakenIncorrect        37041                       # Number of branches that were predicted taken incorrectly (Count)
board.processor.switch2.core.iew.predictedNotTakenIncorrect        30144                       # Number of branches that were predicted not taken incorrectly (Count)
board.processor.switch2.core.iew.branchMispredicts        67185                       # Number of branch mispredicts detected at execute (Count)
board.processor.switch2.core.iew.instsToCommit     78584608                       # Cumulative count of insts sent to commit (Count)
board.processor.switch2.core.iew.writebackCount     78584179                       # Cumulative count of insts written-back (Count)
board.processor.switch2.core.iew.producerInst     44579338                       # Number of instructions producing a value (Count)
board.processor.switch2.core.iew.consumerInst     70070371                       # Number of instructions consuming a value (Count)
board.processor.switch2.core.iew.wbRate      1.811228                       # Insts written-back per cycle ((Count/Cycle))
board.processor.switch2.core.iew.wbFanout     0.636208                       # Average fanout of values written-back ((Count/Count))
board.processor.switch2.core.lsq0.forwLoads       291550                       # Number of loads that had data forwarded from stores (Count)
board.processor.switch2.core.lsq0.squashedLoads        79954                       # Number of loads squashed (Count)
board.processor.switch2.core.lsq0.ignoredResponses           23                       # Number of memory responses ignored because the instruction is squashed (Count)
board.processor.switch2.core.lsq0.memOrderViolation          649                       # Number of memory ordering violations (Count)
board.processor.switch2.core.lsq0.squashedStores        15529                       # Number of stores squashed (Count)
board.processor.switch2.core.lsq0.rescheduledLoads            4                       # Number of loads that were rescheduled (Count)
board.processor.switch2.core.lsq0.blockedByCache            0                       # Number of times an access to memory failed due to the cache being blocked (Count)
board.processor.switch2.core.lsq0.loadToUse::samples     13192814                       # Distribution of cycle latency between the first time a load is issued and its completion (Unspecified)
board.processor.switch2.core.lsq0.loadToUse::mean     2.601522                       # Distribution of cycle latency between the first time a load is issued and its completion (Unspecified)
board.processor.switch2.core.lsq0.loadToUse::stdev     6.736626                       # Distribution of cycle latency between the first time a load is issued and its completion (Unspecified)
board.processor.switch2.core.lsq0.loadToUse::0-9     13140703     99.61%     99.61% # Distribution of cycle latency between the first time a load is issued and its completion (Unspecified)
board.processor.switch2.core.lsq0.loadToUse::10-19        37153      0.28%     99.89% # Distribution of cycle latency between the first time a load is issued and its completion (Unspecified)
board.processor.switch2.core.lsq0.loadToUse::20-29           46      0.00%     99.89% # Distribution of cycle latency between the first time a load is issued and its completion (Unspecified)
board.processor.switch2.core.lsq0.loadToUse::30-39           76      0.00%     99.89% # Distribution of cycle latency between the first time a load is issued and its completion (Unspecified)
board.processor.switch2.core.lsq0.loadToUse::40-49          144      0.00%     99.89% # Distribution of cycle latency between the first time a load is issued and its completion (Unspecified)
board.processor.switch2.core.lsq0.loadToUse::50-59          207      0.00%     99.89% # Distribution of cycle latency between the first time a load is issued and its completion (Unspecified)
board.processor.switch2.core.lsq0.loadToUse::60-69          126      0.00%     99.89% # Distribution of cycle latency between the first time a load is issued and its completion (Unspecified)
board.processor.switch2.core.lsq0.loadToUse::70-79           47      0.00%     99.89% # Distribution of cycle latency between the first time a load is issued and its completion (Unspecified)
board.processor.switch2.core.lsq0.loadToUse::80-89           45      0.00%     99.89% # Distribution of cycle latency between the first time a load is issued and its completion (Unspecified)
board.processor.switch2.core.lsq0.loadToUse::90-99           23      0.00%     99.89% # Distribution of cycle latency between the first time a load is issued and its completion (Unspecified)
board.processor.switch2.core.lsq0.loadToUse::100-109           57      0.00%     99.89% # Distribution of cycle latency between the first time a load is issued and its completion (Unspecified)
board.processor.switch2.core.lsq0.loadToUse::110-119          156      0.00%     99.89% # Distribution of cycle latency between the first time a load is issued and its completion (Unspecified)
board.processor.switch2.core.lsq0.loadToUse::120-129          210      0.00%     99.90% # Distribution of cycle latency between the first time a load is issued and its completion (Unspecified)
board.processor.switch2.core.lsq0.loadToUse::130-139         3897      0.03%     99.92% # Distribution of cycle latency between the first time a load is issued and its completion (Unspecified)
board.processor.switch2.core.lsq0.loadToUse::140-149          658      0.00%     99.93% # Distribution of cycle latency between the first time a load is issued and its completion (Unspecified)
board.processor.switch2.core.lsq0.loadToUse::150-159          742      0.01%     99.94% # Distribution of cycle latency between the first time a load is issued and its completion (Unspecified)
board.processor.switch2.core.lsq0.loadToUse::160-169          538      0.00%     99.94% # Distribution of cycle latency between the first time a load is issued and its completion (Unspecified)
board.processor.switch2.core.lsq0.loadToUse::170-179         4371      0.03%     99.97% # Distribution of cycle latency between the first time a load is issued and its completion (Unspecified)
board.processor.switch2.core.lsq0.loadToUse::180-189         2005      0.02%     99.99% # Distribution of cycle latency between the first time a load is issued and its completion (Unspecified)
board.processor.switch2.core.lsq0.loadToUse::190-199          194      0.00%     99.99% # Distribution of cycle latency between the first time a load is issued and its completion (Unspecified)
board.processor.switch2.core.lsq0.loadToUse::200-209           89      0.00%     99.99% # Distribution of cycle latency between the first time a load is issued and its completion (Unspecified)
board.processor.switch2.core.lsq0.loadToUse::210-219          130      0.00%     99.99% # Distribution of cycle latency between the first time a load is issued and its completion (Unspecified)
board.processor.switch2.core.lsq0.loadToUse::220-229          565      0.00%    100.00% # Distribution of cycle latency between the first time a load is issued and its completion (Unspecified)
board.processor.switch2.core.lsq0.loadToUse::230-239           61      0.00%    100.00% # Distribution of cycle latency between the first time a load is issued and its completion (Unspecified)
board.processor.switch2.core.lsq0.loadToUse::240-249            4      0.00%    100.00% # Distribution of cycle latency between the first time a load is issued and its completion (Unspecified)
board.processor.switch2.core.lsq0.loadToUse::250-259           10      0.00%    100.00% # Distribution of cycle latency between the first time a load is issued and its completion (Unspecified)
board.processor.switch2.core.lsq0.loadToUse::260-269           10      0.00%    100.00% # Distribution of cycle latency between the first time a load is issued and its completion (Unspecified)
board.processor.switch2.core.lsq0.loadToUse::270-279           10      0.00%    100.00% # Distribution of cycle latency between the first time a load is issued and its completion (Unspecified)
board.processor.switch2.core.lsq0.loadToUse::280-289           22      0.00%    100.00% # Distribution of cycle latency between the first time a load is issued and its completion (Unspecified)
board.processor.switch2.core.lsq0.loadToUse::290-299           15      0.00%    100.00% # Distribution of cycle latency between the first time a load is issued and its completion (Unspecified)
board.processor.switch2.core.lsq0.loadToUse::overflows          500      0.00%    100.00% # Distribution of cycle latency between the first time a load is issued and its completion (Unspecified)
board.processor.switch2.core.lsq0.loadToUse::min_value            2                       # Distribution of cycle latency between the first time a load is issued and its completion (Unspecified)
board.processor.switch2.core.lsq0.loadToUse::max_value          995                       # Distribution of cycle latency between the first time a load is issued and its completion (Unspecified)
board.processor.switch2.core.lsq0.loadToUse::total     13192814                       # Distribution of cycle latency between the first time a load is issued and its completion (Unspecified)
board.processor.switch2.core.mmu.dtb.rdAccesses     13237114                       # TLB accesses on read requests (Count)
board.processor.switch2.core.mmu.dtb.wrAccesses      4149402                       # TLB accesses on write requests (Count)
board.processor.switch2.core.mmu.dtb.rdMisses          753                       # TLB misses on read requests (Count)
board.processor.switch2.core.mmu.dtb.wrMisses            7                       # TLB misses on write requests (Count)
board.processor.switch2.core.mmu.dtb.walker.power_state.pwrStateResidencyTicks::UNDEFINED 225700565981194                       # Cumulative time (in ticks) in various power states (Tick)
board.processor.switch2.core.mmu.itb.rdAccesses            0                       # TLB accesses on read requests (Count)
board.processor.switch2.core.mmu.itb.wrAccesses      5053988                       # TLB accesses on write requests (Count)
board.processor.switch2.core.mmu.itb.rdMisses            0                       # TLB misses on read requests (Count)
board.processor.switch2.core.mmu.itb.wrMisses            6                       # TLB misses on write requests (Count)
board.processor.switch2.core.mmu.itb.walker.power_state.pwrStateResidencyTicks::UNDEFINED 225700565981194                       # Cumulative time (in ticks) in various power states (Tick)
board.processor.switch2.core.power_state.pwrStateResidencyTicks::OFF 225700565981194                       # Cumulative time (in ticks) in various power states (Tick)
board.processor.switch2.core.rename.squashCycles        67403                       # Number of cycles rename is squashing (Cycle)
board.processor.switch2.core.rename.idleCycles      1672444                       # Number of cycles rename is idle (Cycle)
board.processor.switch2.core.rename.blockCycles       393028                       # Number of cycles rename is blocking (Cycle)
board.processor.switch2.core.rename.serializeStallCycles            0                       # count of cycles rename stalled for serializing inst (Cycle)
board.processor.switch2.core.rename.runCycles     41001371                       # Number of cycles rename is running (Cycle)
board.processor.switch2.core.rename.unblockCycles       252843                       # Number of cycles rename is unblocking (Cycle)
board.processor.switch2.core.rename.renamedInsts     79111752                       # Number of instructions processed by rename (Count)
board.processor.switch2.core.rename.ROBFullEvents         1352                       # Number of times rename has blocked due to ROB full (Count)
board.processor.switch2.core.rename.IQFullEvents         5240                       # Number of times rename has blocked due to IQ full (Count)
board.processor.switch2.core.rename.LQFullEvents       238923                       # Number of times rename has blocked due to LQ full (Count)
board.processor.switch2.core.rename.SQFullEvents          605                       # Number of times rename has blocked due to SQ full (Count)
board.processor.switch2.core.rename.fullRegistersEvents            7                       # Number of times there has been no free registers (Count)
board.processor.switch2.core.rename.renamedOperands    103372063                       # Number of destination operands rename has renamed (Count)
board.processor.switch2.core.rename.lookups    222570245                       # Number of register rename lookups that rename has made (Count)
board.processor.switch2.core.rename.intLookups     45400069                       # Number of integer rename lookups (Count)
board.processor.switch2.core.rename.fpLookups     92332347                       # Number of floating rename lookups (Count)
board.processor.switch2.core.rename.committedMaps    101763565                       # Number of HB maps that are committed (Count)
board.processor.switch2.core.rename.undoneMaps      1608482                       # Number of HB maps that are undone due to squashing (Count)
board.processor.switch2.core.rename.serializing            0                       # count of serializing insts renamed (Count)
board.processor.switch2.core.rename.tempSerializing            0                       # count of temporary serializing insts renamed (Count)
board.processor.switch2.core.rename.skidInsts        42810                       # count of insts added to the skid buffer (Count)
board.processor.switch2.core.rob.reads       84355507                       # The number of ROB reads (Count)
board.processor.switch2.core.rob.writes     157808258                       # The number of ROB writes (Count)
board.processor.switch2.core.thread_0.numInsts     53753128                       # Number of Instructions committed (Count)
board.processor.switch2.core.thread_0.numOps     78286844                       # Number of Ops committed (Count)
board.processor.switch2.core.thread_0.numMemRefs            0                       # Number of Memory References (Count)
board.workload.inst.arm                             0                       # number of arm instructions executed (Count)
board.workload.inst.quiesce                         0                       # number of quiesce instructions executed (Count)

---------- End Simulation Statistics   ----------
