
---------- Begin Simulation Statistics ----------
simSeconds                                   0.014545                       # Number of seconds simulated (Second)
simTicks                                  14545297725                       # Number of ticks simulated (Tick)
finalTick                                226949050478962                       # Number of ticks from beginning of simulation (restored from checkpoints and never reset) (Tick)
simFreq                                  1000000000000                       # The number of ticks per simulated second ((Tick/Second))
hostSeconds                                    205.73                       # Real time elapsed on the host (Second)
hostTickRate                                 70700557                       # The number of ticks simulated per host second (ticks/s) ((Tick/Second))
hostMemory                                    4388808                       # Number of bytes of host memory used (Byte)
simInsts                                 1646065643153                       # Number of instructions simulated (Count)
simOps                                   1646183715346                       # Number of ops (including micro ops) simulated (Count)
hostInstRate                               8001051096                       # Simulator instruction rate (inst/s) ((Count/Second))
hostOpRate                                 8001624583                       # Simulator op (including micro ops) rate (op/s) ((Count/Second))
board.cache_hierarchy.l1d-cache-0.demandHits::processor.switch2.core.data     15832227                       # number of demand (read+write) hits (Count)
board.cache_hierarchy.l1d-cache-0.demandHits::total     15832227                       # number of demand (read+write) hits (Count)
board.cache_hierarchy.l1d-cache-0.overallHits::processor.switch2.core.data     15832227                       # number of overall hits (Count)
board.cache_hierarchy.l1d-cache-0.overallHits::total     15832227                       # number of overall hits (Count)
board.cache_hierarchy.l1d-cache-0.demandMisses::processor.switch2.core.data       823336                       # number of demand (read+write) misses (Count)
board.cache_hierarchy.l1d-cache-0.demandMisses::total       823336                       # number of demand (read+write) misses (Count)
board.cache_hierarchy.l1d-cache-0.overallMisses::processor.switch2.core.data       823336                       # number of overall misses (Count)
board.cache_hierarchy.l1d-cache-0.overallMisses::total       823336                       # number of overall misses (Count)
board.cache_hierarchy.l1d-cache-0.demandMissLatency::processor.switch2.core.data   3498313185                       # number of demand (read+write) miss ticks (Tick)
board.cache_hierarchy.l1d-cache-0.demandMissLatency::total   3498313185                       # number of demand (read+write) miss ticks (Tick)
board.cache_hierarchy.l1d-cache-0.overallMissLatency::processor.switch2.core.data   3498313185                       # number of overall miss ticks (Tick)
board.cache_hierarchy.l1d-cache-0.overallMissLatency::total   3498313185                       # number of overall miss ticks (Tick)
board.cache_hierarchy.l1d-cache-0.demandAccesses::processor.switch2.core.data     16655563                       # number of demand (read+write) accesses (Count)
board.cache_hierarchy.l1d-cache-0.demandAccesses::total     16655563                       # number of demand (read+write) accesses (Count)
board.cache_hierarchy.l1d-cache-0.overallAccesses::processor.switch2.core.data     16655563                       # number of overall (read+write) accesses (Count)
board.cache_hierarchy.l1d-cache-0.overallAccesses::total     16655563                       # number of overall (read+write) accesses (Count)
board.cache_hierarchy.l1d-cache-0.demandMissRate::processor.switch2.core.data     0.049433                       # miss rate for demand accesses (Ratio)
board.cache_hierarchy.l1d-cache-0.demandMissRate::total     0.049433                       # miss rate for demand accesses (Ratio)
board.cache_hierarchy.l1d-cache-0.overallMissRate::processor.switch2.core.data     0.049433                       # miss rate for overall accesses (Ratio)
board.cache_hierarchy.l1d-cache-0.overallMissRate::total     0.049433                       # miss rate for overall accesses (Ratio)
board.cache_hierarchy.l1d-cache-0.demandAvgMissLatency::processor.switch2.core.data  4248.949621                       # average overall miss latency in ticks ((Tick/Count))
board.cache_hierarchy.l1d-cache-0.demandAvgMissLatency::total  4248.949621                       # average overall miss latency in ticks ((Tick/Count))
board.cache_hierarchy.l1d-cache-0.overallAvgMissLatency::processor.switch2.core.data  4248.949621                       # average overall miss latency ((Tick/Count))
board.cache_hierarchy.l1d-cache-0.overallAvgMissLatency::total  4248.949621                       # average overall miss latency ((Tick/Count))
board.cache_hierarchy.l1d-cache-0.blockedCycles::no_mshrs            0                       # number of cycles access was blocked (Cycle)
board.cache_hierarchy.l1d-cache-0.blockedCycles::no_targets            0                       # number of cycles access was blocked (Cycle)
board.cache_hierarchy.l1d-cache-0.blockedCauses::no_mshrs            0                       # number of times access was blocked (Count)
board.cache_hierarchy.l1d-cache-0.blockedCauses::no_targets            0                       # number of times access was blocked (Count)
board.cache_hierarchy.l1d-cache-0.avgBlocked::no_mshrs          nan                       # average number of cycles each access was blocked ((Cycle/Count))
board.cache_hierarchy.l1d-cache-0.avgBlocked::no_targets          nan                       # average number of cycles each access was blocked ((Cycle/Count))
board.cache_hierarchy.l1d-cache-0.writebacks::writebacks       106009                       # number of writebacks (Count)
board.cache_hierarchy.l1d-cache-0.writebacks::total       106009                       # number of writebacks (Count)
board.cache_hierarchy.l1d-cache-0.demandMshrHits::processor.switch2.core.data       424119                       # number of demand (read+write) MSHR hits (Count)
board.cache_hierarchy.l1d-cache-0.demandMshrHits::total       424119                       # number of demand (read+write) MSHR hits (Count)
board.cache_hierarchy.l1d-cache-0.overallMshrHits::processor.switch2.core.data       424119                       # number of overall MSHR hits (Count)
board.cache_hierarchy.l1d-cache-0.overallMshrHits::total       424119                       # number of overall MSHR hits (Count)
board.cache_hierarchy.l1d-cache-0.demandMshrMisses::processor.switch2.core.data       399217                       # number of demand (read+write) MSHR misses (Count)
board.cache_hierarchy.l1d-cache-0.demandMshrMisses::total       399217                       # number of demand (read+write) MSHR misses (Count)
board.cache_hierarchy.l1d-cache-0.overallMshrMisses::processor.switch2.core.data       399217                       # number of overall MSHR misses (Count)
board.cache_hierarchy.l1d-cache-0.overallMshrMisses::total       399217                       # number of overall MSHR misses (Count)
board.cache_hierarchy.l1d-cache-0.demandMshrMissLatency::processor.switch2.core.data   1535478651                       # number of demand (read+write) MSHR miss ticks (Tick)
board.cache_hierarchy.l1d-cache-0.demandMshrMissLatency::total   1535478651                       # number of demand (read+write) MSHR miss ticks (Tick)
board.cache_hierarchy.l1d-cache-0.overallMshrMissLatency::processor.switch2.core.data   1535478651                       # number of overall MSHR miss ticks (Tick)
board.cache_hierarchy.l1d-cache-0.overallMshrMissLatency::total   1535478651                       # number of overall MSHR miss ticks (Tick)
board.cache_hierarchy.l1d-cache-0.demandMshrMissRate::processor.switch2.core.data     0.023969                       # mshr miss ratio for demand accesses (Ratio)
board.cache_hierarchy.l1d-cache-0.demandMshrMissRate::total     0.023969                       # mshr miss ratio for demand accesses (Ratio)
board.cache_hierarchy.l1d-cache-0.overallMshrMissRate::processor.switch2.core.data     0.023969                       # mshr miss ratio for overall accesses (Ratio)
board.cache_hierarchy.l1d-cache-0.overallMshrMissRate::total     0.023969                       # mshr miss ratio for overall accesses (Ratio)
board.cache_hierarchy.l1d-cache-0.demandAvgMshrMissLatency::processor.switch2.core.data  3846.225614                       # average overall mshr miss latency ((Tick/Count))
board.cache_hierarchy.l1d-cache-0.demandAvgMshrMissLatency::total  3846.225614                       # average overall mshr miss latency ((Tick/Count))
board.cache_hierarchy.l1d-cache-0.overallAvgMshrMissLatency::processor.switch2.core.data  3846.225614                       # average overall mshr miss latency ((Tick/Count))
board.cache_hierarchy.l1d-cache-0.overallAvgMshrMissLatency::total  3846.225614                       # average overall mshr miss latency ((Tick/Count))
board.cache_hierarchy.l1d-cache-0.replacements       399217                       # number of replacements (Count)
board.cache_hierarchy.l1d-cache-0.ReadReq.hits::processor.switch2.core.data     11912540                       # number of ReadReq hits (Count)
board.cache_hierarchy.l1d-cache-0.ReadReq.hits::total     11912540                       # number of ReadReq hits (Count)
board.cache_hierarchy.l1d-cache-0.ReadReq.misses::processor.switch2.core.data       811178                       # number of ReadReq misses (Count)
board.cache_hierarchy.l1d-cache-0.ReadReq.misses::total       811178                       # number of ReadReq misses (Count)
board.cache_hierarchy.l1d-cache-0.ReadReq.missLatency::processor.switch2.core.data   3467635893                       # number of ReadReq miss ticks (Tick)
board.cache_hierarchy.l1d-cache-0.ReadReq.missLatency::total   3467635893                       # number of ReadReq miss ticks (Tick)
board.cache_hierarchy.l1d-cache-0.ReadReq.accesses::processor.switch2.core.data     12723718                       # number of ReadReq accesses(hits+misses) (Count)
board.cache_hierarchy.l1d-cache-0.ReadReq.accesses::total     12723718                       # number of ReadReq accesses(hits+misses) (Count)
board.cache_hierarchy.l1d-cache-0.ReadReq.missRate::processor.switch2.core.data     0.063753                       # miss rate for ReadReq accesses (Ratio)
board.cache_hierarchy.l1d-cache-0.ReadReq.missRate::total     0.063753                       # miss rate for ReadReq accesses (Ratio)
board.cache_hierarchy.l1d-cache-0.ReadReq.avgMissLatency::processor.switch2.core.data  4274.815013                       # average ReadReq miss latency ((Tick/Count))
board.cache_hierarchy.l1d-cache-0.ReadReq.avgMissLatency::total  4274.815013                       # average ReadReq miss latency ((Tick/Count))
board.cache_hierarchy.l1d-cache-0.ReadReq.mshrHits::processor.switch2.core.data       424109                       # number of ReadReq MSHR hits (Count)
board.cache_hierarchy.l1d-cache-0.ReadReq.mshrHits::total       424109                       # number of ReadReq MSHR hits (Count)
board.cache_hierarchy.l1d-cache-0.ReadReq.mshrMisses::processor.switch2.core.data       387069                       # number of ReadReq MSHR misses (Count)
board.cache_hierarchy.l1d-cache-0.ReadReq.mshrMisses::total       387069                       # number of ReadReq MSHR misses (Count)
board.cache_hierarchy.l1d-cache-0.ReadReq.mshrMissLatency::processor.switch2.core.data   1508866623                       # number of ReadReq MSHR miss ticks (Tick)
board.cache_hierarchy.l1d-cache-0.ReadReq.mshrMissLatency::total   1508866623                       # number of ReadReq MSHR miss ticks (Tick)
board.cache_hierarchy.l1d-cache-0.ReadReq.mshrMissRate::processor.switch2.core.data     0.030421                       # mshr miss rate for ReadReq accesses (Ratio)
board.cache_hierarchy.l1d-cache-0.ReadReq.mshrMissRate::total     0.030421                       # mshr miss rate for ReadReq accesses (Ratio)
board.cache_hierarchy.l1d-cache-0.ReadReq.avgMshrMissLatency::processor.switch2.core.data  3898.185138                       # average ReadReq mshr miss latency ((Tick/Count))
board.cache_hierarchy.l1d-cache-0.ReadReq.avgMshrMissLatency::total  3898.185138                       # average ReadReq mshr miss latency ((Tick/Count))
board.cache_hierarchy.l1d-cache-0.WriteReq.hits::processor.switch2.core.data      3919687                       # number of WriteReq hits (Count)
board.cache_hierarchy.l1d-cache-0.WriteReq.hits::total      3919687                       # number of WriteReq hits (Count)
board.cache_hierarchy.l1d-cache-0.WriteReq.misses::processor.switch2.core.data        12158                       # number of WriteReq misses (Count)
board.cache_hierarchy.l1d-cache-0.WriteReq.misses::total        12158                       # number of WriteReq misses (Count)
board.cache_hierarchy.l1d-cache-0.WriteReq.missLatency::processor.switch2.core.data     30677292                       # number of WriteReq miss ticks (Tick)
board.cache_hierarchy.l1d-cache-0.WriteReq.missLatency::total     30677292                       # number of WriteReq miss ticks (Tick)
board.cache_hierarchy.l1d-cache-0.WriteReq.accesses::processor.switch2.core.data      3931845                       # number of WriteReq accesses(hits+misses) (Count)
board.cache_hierarchy.l1d-cache-0.WriteReq.accesses::total      3931845                       # number of WriteReq accesses(hits+misses) (Count)
board.cache_hierarchy.l1d-cache-0.WriteReq.missRate::processor.switch2.core.data     0.003092                       # miss rate for WriteReq accesses (Ratio)
board.cache_hierarchy.l1d-cache-0.WriteReq.missRate::total     0.003092                       # miss rate for WriteReq accesses (Ratio)
board.cache_hierarchy.l1d-cache-0.WriteReq.avgMissLatency::processor.switch2.core.data  2523.218621                       # average WriteReq miss latency ((Tick/Count))
board.cache_hierarchy.l1d-cache-0.WriteReq.avgMissLatency::total  2523.218621                       # average WriteReq miss latency ((Tick/Count))
board.cache_hierarchy.l1d-cache-0.WriteReq.mshrHits::processor.switch2.core.data           10                       # number of WriteReq MSHR hits (Count)
board.cache_hierarchy.l1d-cache-0.WriteReq.mshrHits::total           10                       # number of WriteReq MSHR hits (Count)
board.cache_hierarchy.l1d-cache-0.WriteReq.mshrMisses::processor.switch2.core.data        12148                       # number of WriteReq MSHR misses (Count)
board.cache_hierarchy.l1d-cache-0.WriteReq.mshrMisses::total        12148                       # number of WriteReq MSHR misses (Count)
board.cache_hierarchy.l1d-cache-0.WriteReq.mshrMissLatency::processor.switch2.core.data     26612028                       # number of WriteReq MSHR miss ticks (Tick)
board.cache_hierarchy.l1d-cache-0.WriteReq.mshrMissLatency::total     26612028                       # number of WriteReq MSHR miss ticks (Tick)
board.cache_hierarchy.l1d-cache-0.WriteReq.mshrMissRate::processor.switch2.core.data     0.003090                       # mshr miss rate for WriteReq accesses (Ratio)
board.cache_hierarchy.l1d-cache-0.WriteReq.mshrMissRate::total     0.003090                       # mshr miss rate for WriteReq accesses (Ratio)
board.cache_hierarchy.l1d-cache-0.WriteReq.avgMshrMissLatency::processor.switch2.core.data  2190.650971                       # average WriteReq mshr miss latency ((Tick/Count))
board.cache_hierarchy.l1d-cache-0.WriteReq.avgMshrMissLatency::total  2190.650971                       # average WriteReq mshr miss latency ((Tick/Count))
board.cache_hierarchy.l1d-cache-0.power_state.pwrStateResidencyTicks::UNDEFINED 226949050478962                       # Cumulative time (in ticks) in various power states (Tick)
board.cache_hierarchy.l1d-cache-0.tags.tagsInUse          512                       # Average ticks per tags in use ((Tick/Count))
board.cache_hierarchy.l1d-cache-0.tags.totalRefs     17313151                       # Total number of references to valid blocks. (Count)
board.cache_hierarchy.l1d-cache-0.tags.sampledRefs       399729                       # Sample count of references to valid blocks. (Count)
board.cache_hierarchy.l1d-cache-0.tags.avgRefs    43.312222                       # Average number of references to valid blocks. ((Count/Count))
board.cache_hierarchy.l1d-cache-0.tags.warmupTick            0                       # The tick when the warmup percentage was hit. (Tick)
board.cache_hierarchy.l1d-cache-0.tags.occupancies::processor.switch1.core.data     6.477423                       # Average occupied blocks per tick, per requestor ((Count/Tick))
board.cache_hierarchy.l1d-cache-0.tags.occupancies::processor.switch2.core.data   505.522577                       # Average occupied blocks per tick, per requestor ((Count/Tick))
board.cache_hierarchy.l1d-cache-0.tags.avgOccs::processor.switch1.core.data     0.012651                       # Average percentage of cache occupancy ((Ratio/Tick))
board.cache_hierarchy.l1d-cache-0.tags.avgOccs::processor.switch2.core.data     0.987349                       # Average percentage of cache occupancy ((Ratio/Tick))
board.cache_hierarchy.l1d-cache-0.tags.avgOccs::total            1                       # Average percentage of cache occupancy ((Ratio/Tick))
board.cache_hierarchy.l1d-cache-0.tags.occupanciesTaskId::1024          512                       # Occupied blocks per task id (Count)
board.cache_hierarchy.l1d-cache-0.tags.ageTaskId_1024::0          108                       # Occupied blocks per task id, per block age (Count)
board.cache_hierarchy.l1d-cache-0.tags.ageTaskId_1024::1          198                       # Occupied blocks per task id, per block age (Count)
board.cache_hierarchy.l1d-cache-0.tags.ageTaskId_1024::2          205                       # Occupied blocks per task id, per block age (Count)
board.cache_hierarchy.l1d-cache-0.tags.ageTaskId_1024::3            1                       # Occupied blocks per task id, per block age (Count)
board.cache_hierarchy.l1d-cache-0.tags.ratioOccsTaskId::1024            1                       # Ratio of occupied blocks and all blocks, per task id (Ratio)
board.cache_hierarchy.l1d-cache-0.tags.tagAccesses     67021469                       # Number of tag accesses (Count)
board.cache_hierarchy.l1d-cache-0.tags.dataAccesses     67021469                       # Number of data accesses (Count)
board.cache_hierarchy.l1d-cache-0.tags.power_state.pwrStateResidencyTicks::UNDEFINED 226949050478962                       # Cumulative time (in ticks) in various power states (Tick)
board.cache_hierarchy.l1i-cache-0.demandHits::processor.switch2.core.inst      5025945                       # number of demand (read+write) hits (Count)
board.cache_hierarchy.l1i-cache-0.demandHits::total      5025945                       # number of demand (read+write) hits (Count)
board.cache_hierarchy.l1i-cache-0.overallHits::processor.switch2.core.inst      5025945                       # number of overall hits (Count)
board.cache_hierarchy.l1i-cache-0.overallHits::total      5025945                       # number of overall hits (Count)
board.cache_hierarchy.l1i-cache-0.demandMisses::processor.switch2.core.inst            3                       # number of demand (read+write) misses (Count)
board.cache_hierarchy.l1i-cache-0.demandMisses::total            3                       # number of demand (read+write) misses (Count)
board.cache_hierarchy.l1i-cache-0.overallMisses::processor.switch2.core.inst            3                       # number of overall misses (Count)
board.cache_hierarchy.l1i-cache-0.overallMisses::total            3                       # number of overall misses (Count)
board.cache_hierarchy.l1i-cache-0.demandMissLatency::processor.switch2.core.inst       117549                       # number of demand (read+write) miss ticks (Tick)
board.cache_hierarchy.l1i-cache-0.demandMissLatency::total       117549                       # number of demand (read+write) miss ticks (Tick)
board.cache_hierarchy.l1i-cache-0.overallMissLatency::processor.switch2.core.inst       117549                       # number of overall miss ticks (Tick)
board.cache_hierarchy.l1i-cache-0.overallMissLatency::total       117549                       # number of overall miss ticks (Tick)
board.cache_hierarchy.l1i-cache-0.demandAccesses::processor.switch2.core.inst      5025948                       # number of demand (read+write) accesses (Count)
board.cache_hierarchy.l1i-cache-0.demandAccesses::total      5025948                       # number of demand (read+write) accesses (Count)
board.cache_hierarchy.l1i-cache-0.overallAccesses::processor.switch2.core.inst      5025948                       # number of overall (read+write) accesses (Count)
board.cache_hierarchy.l1i-cache-0.overallAccesses::total      5025948                       # number of overall (read+write) accesses (Count)
board.cache_hierarchy.l1i-cache-0.demandMissRate::processor.switch2.core.inst     0.000001                       # miss rate for demand accesses (Ratio)
board.cache_hierarchy.l1i-cache-0.demandMissRate::total     0.000001                       # miss rate for demand accesses (Ratio)
board.cache_hierarchy.l1i-cache-0.overallMissRate::processor.switch2.core.inst     0.000001                       # miss rate for overall accesses (Ratio)
board.cache_hierarchy.l1i-cache-0.overallMissRate::total     0.000001                       # miss rate for overall accesses (Ratio)
board.cache_hierarchy.l1i-cache-0.demandAvgMissLatency::processor.switch2.core.inst        39183                       # average overall miss latency in ticks ((Tick/Count))
board.cache_hierarchy.l1i-cache-0.demandAvgMissLatency::total        39183                       # average overall miss latency in ticks ((Tick/Count))
board.cache_hierarchy.l1i-cache-0.overallAvgMissLatency::processor.switch2.core.inst        39183                       # average overall miss latency ((Tick/Count))
board.cache_hierarchy.l1i-cache-0.overallAvgMissLatency::total        39183                       # average overall miss latency ((Tick/Count))
board.cache_hierarchy.l1i-cache-0.blockedCycles::no_mshrs            0                       # number of cycles access was blocked (Cycle)
board.cache_hierarchy.l1i-cache-0.blockedCycles::no_targets            0                       # number of cycles access was blocked (Cycle)
board.cache_hierarchy.l1i-cache-0.blockedCauses::no_mshrs            0                       # number of times access was blocked (Count)
board.cache_hierarchy.l1i-cache-0.blockedCauses::no_targets            0                       # number of times access was blocked (Count)
board.cache_hierarchy.l1i-cache-0.avgBlocked::no_mshrs          nan                       # average number of cycles each access was blocked ((Cycle/Count))
board.cache_hierarchy.l1i-cache-0.avgBlocked::no_targets          nan                       # average number of cycles each access was blocked ((Cycle/Count))
board.cache_hierarchy.l1i-cache-0.demandMshrHits::processor.switch2.core.inst            1                       # number of demand (read+write) MSHR hits (Count)
board.cache_hierarchy.l1i-cache-0.demandMshrHits::total            1                       # number of demand (read+write) MSHR hits (Count)
board.cache_hierarchy.l1i-cache-0.overallMshrHits::processor.switch2.core.inst            1                       # number of overall MSHR hits (Count)
board.cache_hierarchy.l1i-cache-0.overallMshrHits::total            1                       # number of overall MSHR hits (Count)
board.cache_hierarchy.l1i-cache-0.demandMshrMisses::processor.switch2.core.inst            2                       # number of demand (read+write) MSHR misses (Count)
board.cache_hierarchy.l1i-cache-0.demandMshrMisses::total            2                       # number of demand (read+write) MSHR misses (Count)
board.cache_hierarchy.l1i-cache-0.overallMshrMisses::processor.switch2.core.inst            2                       # number of overall MSHR misses (Count)
board.cache_hierarchy.l1i-cache-0.overallMshrMisses::total            2                       # number of overall MSHR misses (Count)
board.cache_hierarchy.l1i-cache-0.demandMshrMissLatency::processor.switch2.core.inst       104562                       # number of demand (read+write) MSHR miss ticks (Tick)
board.cache_hierarchy.l1i-cache-0.demandMshrMissLatency::total       104562                       # number of demand (read+write) MSHR miss ticks (Tick)
board.cache_hierarchy.l1i-cache-0.overallMshrMissLatency::processor.switch2.core.inst       104562                       # number of overall MSHR miss ticks (Tick)
board.cache_hierarchy.l1i-cache-0.overallMshrMissLatency::total       104562                       # number of overall MSHR miss ticks (Tick)
board.cache_hierarchy.l1i-cache-0.demandMshrMissRate::processor.switch2.core.inst     0.000000                       # mshr miss ratio for demand accesses (Ratio)
board.cache_hierarchy.l1i-cache-0.demandMshrMissRate::total     0.000000                       # mshr miss ratio for demand accesses (Ratio)
board.cache_hierarchy.l1i-cache-0.overallMshrMissRate::processor.switch2.core.inst     0.000000                       # mshr miss ratio for overall accesses (Ratio)
board.cache_hierarchy.l1i-cache-0.overallMshrMissRate::total     0.000000                       # mshr miss ratio for overall accesses (Ratio)
board.cache_hierarchy.l1i-cache-0.demandAvgMshrMissLatency::processor.switch2.core.inst        52281                       # average overall mshr miss latency ((Tick/Count))
board.cache_hierarchy.l1i-cache-0.demandAvgMshrMissLatency::total        52281                       # average overall mshr miss latency ((Tick/Count))
board.cache_hierarchy.l1i-cache-0.overallAvgMshrMissLatency::processor.switch2.core.inst        52281                       # average overall mshr miss latency ((Tick/Count))
board.cache_hierarchy.l1i-cache-0.overallAvgMshrMissLatency::total        52281                       # average overall mshr miss latency ((Tick/Count))
board.cache_hierarchy.l1i-cache-0.replacements            0                       # number of replacements (Count)
board.cache_hierarchy.l1i-cache-0.ReadReq.hits::processor.switch2.core.inst      5025945                       # number of ReadReq hits (Count)
board.cache_hierarchy.l1i-cache-0.ReadReq.hits::total      5025945                       # number of ReadReq hits (Count)
board.cache_hierarchy.l1i-cache-0.ReadReq.misses::processor.switch2.core.inst            3                       # number of ReadReq misses (Count)
board.cache_hierarchy.l1i-cache-0.ReadReq.misses::total            3                       # number of ReadReq misses (Count)
board.cache_hierarchy.l1i-cache-0.ReadReq.missLatency::processor.switch2.core.inst       117549                       # number of ReadReq miss ticks (Tick)
board.cache_hierarchy.l1i-cache-0.ReadReq.missLatency::total       117549                       # number of ReadReq miss ticks (Tick)
board.cache_hierarchy.l1i-cache-0.ReadReq.accesses::processor.switch2.core.inst      5025948                       # number of ReadReq accesses(hits+misses) (Count)
board.cache_hierarchy.l1i-cache-0.ReadReq.accesses::total      5025948                       # number of ReadReq accesses(hits+misses) (Count)
board.cache_hierarchy.l1i-cache-0.ReadReq.missRate::processor.switch2.core.inst     0.000001                       # miss rate for ReadReq accesses (Ratio)
board.cache_hierarchy.l1i-cache-0.ReadReq.missRate::total     0.000001                       # miss rate for ReadReq accesses (Ratio)
board.cache_hierarchy.l1i-cache-0.ReadReq.avgMissLatency::processor.switch2.core.inst        39183                       # average ReadReq miss latency ((Tick/Count))
board.cache_hierarchy.l1i-cache-0.ReadReq.avgMissLatency::total        39183                       # average ReadReq miss latency ((Tick/Count))
board.cache_hierarchy.l1i-cache-0.ReadReq.mshrHits::processor.switch2.core.inst            1                       # number of ReadReq MSHR hits (Count)
board.cache_hierarchy.l1i-cache-0.ReadReq.mshrHits::total            1                       # number of ReadReq MSHR hits (Count)
board.cache_hierarchy.l1i-cache-0.ReadReq.mshrMisses::processor.switch2.core.inst            2                       # number of ReadReq MSHR misses (Count)
board.cache_hierarchy.l1i-cache-0.ReadReq.mshrMisses::total            2                       # number of ReadReq MSHR misses (Count)
board.cache_hierarchy.l1i-cache-0.ReadReq.mshrMissLatency::processor.switch2.core.inst       104562                       # number of ReadReq MSHR miss ticks (Tick)
board.cache_hierarchy.l1i-cache-0.ReadReq.mshrMissLatency::total       104562                       # number of ReadReq MSHR miss ticks (Tick)
board.cache_hierarchy.l1i-cache-0.ReadReq.mshrMissRate::processor.switch2.core.inst     0.000000                       # mshr miss rate for ReadReq accesses (Ratio)
board.cache_hierarchy.l1i-cache-0.ReadReq.mshrMissRate::total     0.000000                       # mshr miss rate for ReadReq accesses (Ratio)
board.cache_hierarchy.l1i-cache-0.ReadReq.avgMshrMissLatency::processor.switch2.core.inst        52281                       # average ReadReq mshr miss latency ((Tick/Count))
board.cache_hierarchy.l1i-cache-0.ReadReq.avgMshrMissLatency::total        52281                       # average ReadReq mshr miss latency ((Tick/Count))
board.cache_hierarchy.l1i-cache-0.power_state.pwrStateResidencyTicks::UNDEFINED 226949050478962                       # Cumulative time (in ticks) in various power states (Tick)
board.cache_hierarchy.l1i-cache-0.tags.tagsInUse   133.999507                       # Average ticks per tags in use ((Tick/Count))
board.cache_hierarchy.l1i-cache-0.tags.totalRefs     24138122                       # Total number of references to valid blocks. (Count)
board.cache_hierarchy.l1i-cache-0.tags.sampledRefs          134                       # Sample count of references to valid blocks. (Count)
board.cache_hierarchy.l1i-cache-0.tags.avgRefs 180135.238806                       # Average number of references to valid blocks. ((Count/Count))
board.cache_hierarchy.l1i-cache-0.tags.warmupTick            0                       # The tick when the warmup percentage was hit. (Tick)
board.cache_hierarchy.l1i-cache-0.tags.occupancies::processor.switch1.core.inst          132                       # Average occupied blocks per tick, per requestor ((Count/Tick))
board.cache_hierarchy.l1i-cache-0.tags.occupancies::processor.switch2.core.inst     1.999507                       # Average occupied blocks per tick, per requestor ((Count/Tick))
board.cache_hierarchy.l1i-cache-0.tags.avgOccs::processor.switch1.core.inst     0.257812                       # Average percentage of cache occupancy ((Ratio/Tick))
board.cache_hierarchy.l1i-cache-0.tags.avgOccs::processor.switch2.core.inst     0.003905                       # Average percentage of cache occupancy ((Ratio/Tick))
board.cache_hierarchy.l1i-cache-0.tags.avgOccs::total     0.261718                       # Average percentage of cache occupancy ((Ratio/Tick))
board.cache_hierarchy.l1i-cache-0.tags.occupanciesTaskId::1024          134                       # Occupied blocks per task id (Count)
board.cache_hierarchy.l1i-cache-0.tags.ageTaskId_1024::4          134                       # Occupied blocks per task id, per block age (Count)
board.cache_hierarchy.l1i-cache-0.tags.ratioOccsTaskId::1024     0.261719                       # Ratio of occupied blocks and all blocks, per task id (Ratio)
board.cache_hierarchy.l1i-cache-0.tags.tagAccesses     20103794                       # Number of tag accesses (Count)
board.cache_hierarchy.l1i-cache-0.tags.dataAccesses     20103794                       # Number of data accesses (Count)
board.cache_hierarchy.l1i-cache-0.tags.power_state.pwrStateResidencyTicks::UNDEFINED 226949050478962                       # Cumulative time (in ticks) in various power states (Tick)
board.cache_hierarchy.l2-cache-0.demandHits::processor.switch2.core.data       386705                       # number of demand (read+write) hits (Count)
board.cache_hierarchy.l2-cache-0.demandHits::total       386705                       # number of demand (read+write) hits (Count)
board.cache_hierarchy.l2-cache-0.overallHits::processor.switch2.core.data       386705                       # number of overall hits (Count)
board.cache_hierarchy.l2-cache-0.overallHits::total       386705                       # number of overall hits (Count)
board.cache_hierarchy.l2-cache-0.demandMisses::processor.switch2.core.inst            2                       # number of demand (read+write) misses (Count)
board.cache_hierarchy.l2-cache-0.demandMisses::processor.switch2.core.data        12512                       # number of demand (read+write) misses (Count)
board.cache_hierarchy.l2-cache-0.demandMisses::total        12514                       # number of demand (read+write) misses (Count)
board.cache_hierarchy.l2-cache-0.overallMisses::processor.switch2.core.inst            2                       # number of overall misses (Count)
board.cache_hierarchy.l2-cache-0.overallMisses::processor.switch2.core.data        12512                       # number of overall misses (Count)
board.cache_hierarchy.l2-cache-0.overallMisses::total        12514                       # number of overall misses (Count)
board.cache_hierarchy.l2-cache-0.demandMissLatency::processor.switch2.core.inst       103230                       # number of demand (read+write) miss ticks (Tick)
board.cache_hierarchy.l2-cache-0.demandMissLatency::processor.switch2.core.data    747165420                       # number of demand (read+write) miss ticks (Tick)
board.cache_hierarchy.l2-cache-0.demandMissLatency::total    747268650                       # number of demand (read+write) miss ticks (Tick)
board.cache_hierarchy.l2-cache-0.overallMissLatency::processor.switch2.core.inst       103230                       # number of overall miss ticks (Tick)
board.cache_hierarchy.l2-cache-0.overallMissLatency::processor.switch2.core.data    747165420                       # number of overall miss ticks (Tick)
board.cache_hierarchy.l2-cache-0.overallMissLatency::total    747268650                       # number of overall miss ticks (Tick)
board.cache_hierarchy.l2-cache-0.demandAccesses::processor.switch2.core.inst            2                       # number of demand (read+write) accesses (Count)
board.cache_hierarchy.l2-cache-0.demandAccesses::processor.switch2.core.data       399217                       # number of demand (read+write) accesses (Count)
board.cache_hierarchy.l2-cache-0.demandAccesses::total       399219                       # number of demand (read+write) accesses (Count)
board.cache_hierarchy.l2-cache-0.overallAccesses::processor.switch2.core.inst            2                       # number of overall (read+write) accesses (Count)
board.cache_hierarchy.l2-cache-0.overallAccesses::processor.switch2.core.data       399217                       # number of overall (read+write) accesses (Count)
board.cache_hierarchy.l2-cache-0.overallAccesses::total       399219                       # number of overall (read+write) accesses (Count)
board.cache_hierarchy.l2-cache-0.demandMissRate::processor.switch2.core.inst            1                       # miss rate for demand accesses (Ratio)
board.cache_hierarchy.l2-cache-0.demandMissRate::processor.switch2.core.data     0.031341                       # miss rate for demand accesses (Ratio)
board.cache_hierarchy.l2-cache-0.demandMissRate::total     0.031346                       # miss rate for demand accesses (Ratio)
board.cache_hierarchy.l2-cache-0.overallMissRate::processor.switch2.core.inst            1                       # miss rate for overall accesses (Ratio)
board.cache_hierarchy.l2-cache-0.overallMissRate::processor.switch2.core.data     0.031341                       # miss rate for overall accesses (Ratio)
board.cache_hierarchy.l2-cache-0.overallMissRate::total     0.031346                       # miss rate for overall accesses (Ratio)
board.cache_hierarchy.l2-cache-0.demandAvgMissLatency::processor.switch2.core.inst        51615                       # average overall miss latency in ticks ((Tick/Count))
board.cache_hierarchy.l2-cache-0.demandAvgMissLatency::processor.switch2.core.data 59715.906330                       # average overall miss latency in ticks ((Tick/Count))
board.cache_hierarchy.l2-cache-0.demandAvgMissLatency::total 59714.611635                       # average overall miss latency in ticks ((Tick/Count))
board.cache_hierarchy.l2-cache-0.overallAvgMissLatency::processor.switch2.core.inst        51615                       # average overall miss latency ((Tick/Count))
board.cache_hierarchy.l2-cache-0.overallAvgMissLatency::processor.switch2.core.data 59715.906330                       # average overall miss latency ((Tick/Count))
board.cache_hierarchy.l2-cache-0.overallAvgMissLatency::total 59714.611635                       # average overall miss latency ((Tick/Count))
board.cache_hierarchy.l2-cache-0.blockedCycles::no_mshrs            0                       # number of cycles access was blocked (Cycle)
board.cache_hierarchy.l2-cache-0.blockedCycles::no_targets            0                       # number of cycles access was blocked (Cycle)
board.cache_hierarchy.l2-cache-0.blockedCauses::no_mshrs            0                       # number of times access was blocked (Count)
board.cache_hierarchy.l2-cache-0.blockedCauses::no_targets            0                       # number of times access was blocked (Count)
board.cache_hierarchy.l2-cache-0.avgBlocked::no_mshrs          nan                       # average number of cycles each access was blocked ((Cycle/Count))
board.cache_hierarchy.l2-cache-0.avgBlocked::no_targets          nan                       # average number of cycles each access was blocked ((Cycle/Count))
board.cache_hierarchy.l2-cache-0.writebacks::writebacks         3175                       # number of writebacks (Count)
board.cache_hierarchy.l2-cache-0.writebacks::total         3175                       # number of writebacks (Count)
board.cache_hierarchy.l2-cache-0.demandMshrMisses::processor.switch2.core.inst            2                       # number of demand (read+write) MSHR misses (Count)
board.cache_hierarchy.l2-cache-0.demandMshrMisses::processor.switch2.core.data        12512                       # number of demand (read+write) MSHR misses (Count)
board.cache_hierarchy.l2-cache-0.demandMshrMisses::total        12514                       # number of demand (read+write) MSHR misses (Count)
board.cache_hierarchy.l2-cache-0.overallMshrMisses::cache_hierarchy.l2-cache-0.prefetcher           57                       # number of overall MSHR misses (Count)
board.cache_hierarchy.l2-cache-0.overallMshrMisses::processor.switch2.core.inst            2                       # number of overall MSHR misses (Count)
board.cache_hierarchy.l2-cache-0.overallMshrMisses::processor.switch2.core.data        12512                       # number of overall MSHR misses (Count)
board.cache_hierarchy.l2-cache-0.overallMshrMisses::total        12571                       # number of overall MSHR misses (Count)
board.cache_hierarchy.l2-cache-0.demandMshrMissLatency::processor.switch2.core.inst       101232                       # number of demand (read+write) MSHR miss ticks (Tick)
board.cache_hierarchy.l2-cache-0.demandMshrMissLatency::processor.switch2.core.data    734665932                       # number of demand (read+write) MSHR miss ticks (Tick)
board.cache_hierarchy.l2-cache-0.demandMshrMissLatency::total    734767164                       # number of demand (read+write) MSHR miss ticks (Tick)
board.cache_hierarchy.l2-cache-0.overallMshrMissLatency::cache_hierarchy.l2-cache-0.prefetcher      5017311                       # number of overall MSHR miss ticks (Tick)
board.cache_hierarchy.l2-cache-0.overallMshrMissLatency::processor.switch2.core.inst       101232                       # number of overall MSHR miss ticks (Tick)
board.cache_hierarchy.l2-cache-0.overallMshrMissLatency::processor.switch2.core.data    734665932                       # number of overall MSHR miss ticks (Tick)
board.cache_hierarchy.l2-cache-0.overallMshrMissLatency::total    739784475                       # number of overall MSHR miss ticks (Tick)
board.cache_hierarchy.l2-cache-0.demandMshrMissRate::processor.switch2.core.inst            1                       # mshr miss ratio for demand accesses (Ratio)
board.cache_hierarchy.l2-cache-0.demandMshrMissRate::processor.switch2.core.data     0.031341                       # mshr miss ratio for demand accesses (Ratio)
board.cache_hierarchy.l2-cache-0.demandMshrMissRate::total     0.031346                       # mshr miss ratio for demand accesses (Ratio)
board.cache_hierarchy.l2-cache-0.overallMshrMissRate::cache_hierarchy.l2-cache-0.prefetcher          inf                       # mshr miss ratio for overall accesses (Ratio)
board.cache_hierarchy.l2-cache-0.overallMshrMissRate::processor.switch2.core.inst            1                       # mshr miss ratio for overall accesses (Ratio)
board.cache_hierarchy.l2-cache-0.overallMshrMissRate::processor.switch2.core.data     0.031341                       # mshr miss ratio for overall accesses (Ratio)
board.cache_hierarchy.l2-cache-0.overallMshrMissRate::total     0.031489                       # mshr miss ratio for overall accesses (Ratio)
board.cache_hierarchy.l2-cache-0.demandAvgMshrMissLatency::processor.switch2.core.inst        50616                       # average overall mshr miss latency ((Tick/Count))
board.cache_hierarchy.l2-cache-0.demandAvgMshrMissLatency::processor.switch2.core.data 58716.906330                       # average overall mshr miss latency ((Tick/Count))
board.cache_hierarchy.l2-cache-0.demandAvgMshrMissLatency::total 58715.611635                       # average overall mshr miss latency ((Tick/Count))
board.cache_hierarchy.l2-cache-0.overallAvgMshrMissLatency::cache_hierarchy.l2-cache-0.prefetcher        88023                       # average overall mshr miss latency ((Tick/Count))
board.cache_hierarchy.l2-cache-0.overallAvgMshrMissLatency::processor.switch2.core.inst        50616                       # average overall mshr miss latency ((Tick/Count))
board.cache_hierarchy.l2-cache-0.overallAvgMshrMissLatency::processor.switch2.core.data 58716.906330                       # average overall mshr miss latency ((Tick/Count))
board.cache_hierarchy.l2-cache-0.overallAvgMshrMissLatency::total 58848.498528                       # average overall mshr miss latency ((Tick/Count))
board.cache_hierarchy.l2-cache-0.replacements        13146                       # number of replacements (Count)
board.cache_hierarchy.l2-cache-0.CleanEvict.mshrMisses::writebacks         4170                       # number of CleanEvict MSHR misses (Count)
board.cache_hierarchy.l2-cache-0.CleanEvict.mshrMisses::total         4170                       # number of CleanEvict MSHR misses (Count)
board.cache_hierarchy.l2-cache-0.CleanEvict.mshrMissRate::writebacks          inf                       # mshr miss rate for CleanEvict accesses (Ratio)
board.cache_hierarchy.l2-cache-0.CleanEvict.mshrMissRate::total          inf                       # mshr miss rate for CleanEvict accesses (Ratio)
board.cache_hierarchy.l2-cache-0.HardPFReq.mshrMisses::cache_hierarchy.l2-cache-0.prefetcher           57                       # number of HardPFReq MSHR misses (Count)
board.cache_hierarchy.l2-cache-0.HardPFReq.mshrMisses::total           57                       # number of HardPFReq MSHR misses (Count)
board.cache_hierarchy.l2-cache-0.HardPFReq.mshrMissLatency::cache_hierarchy.l2-cache-0.prefetcher      5017311                       # number of HardPFReq MSHR miss ticks (Tick)
board.cache_hierarchy.l2-cache-0.HardPFReq.mshrMissLatency::total      5017311                       # number of HardPFReq MSHR miss ticks (Tick)
board.cache_hierarchy.l2-cache-0.HardPFReq.mshrMissRate::cache_hierarchy.l2-cache-0.prefetcher          inf                       # mshr miss rate for HardPFReq accesses (Ratio)
board.cache_hierarchy.l2-cache-0.HardPFReq.mshrMissRate::total          inf                       # mshr miss rate for HardPFReq accesses (Ratio)
board.cache_hierarchy.l2-cache-0.HardPFReq.avgMshrMissLatency::cache_hierarchy.l2-cache-0.prefetcher        88023                       # average HardPFReq mshr miss latency ((Tick/Count))
board.cache_hierarchy.l2-cache-0.HardPFReq.avgMshrMissLatency::total        88023                       # average HardPFReq mshr miss latency ((Tick/Count))
board.cache_hierarchy.l2-cache-0.ReadExReq.hits::processor.switch2.core.data        12106                       # number of ReadExReq hits (Count)
board.cache_hierarchy.l2-cache-0.ReadExReq.hits::total        12106                       # number of ReadExReq hits (Count)
board.cache_hierarchy.l2-cache-0.ReadExReq.misses::processor.switch2.core.data           42                       # number of ReadExReq misses (Count)
board.cache_hierarchy.l2-cache-0.ReadExReq.misses::total           42                       # number of ReadExReq misses (Count)
board.cache_hierarchy.l2-cache-0.ReadExReq.missLatency::processor.switch2.core.data      2280051                       # number of ReadExReq miss ticks (Tick)
board.cache_hierarchy.l2-cache-0.ReadExReq.missLatency::total      2280051                       # number of ReadExReq miss ticks (Tick)
board.cache_hierarchy.l2-cache-0.ReadExReq.accesses::processor.switch2.core.data        12148                       # number of ReadExReq accesses(hits+misses) (Count)
board.cache_hierarchy.l2-cache-0.ReadExReq.accesses::total        12148                       # number of ReadExReq accesses(hits+misses) (Count)
board.cache_hierarchy.l2-cache-0.ReadExReq.missRate::processor.switch2.core.data     0.003457                       # miss rate for ReadExReq accesses (Ratio)
board.cache_hierarchy.l2-cache-0.ReadExReq.missRate::total     0.003457                       # miss rate for ReadExReq accesses (Ratio)
board.cache_hierarchy.l2-cache-0.ReadExReq.avgMissLatency::processor.switch2.core.data 54286.928571                       # average ReadExReq miss latency ((Tick/Count))
board.cache_hierarchy.l2-cache-0.ReadExReq.avgMissLatency::total 54286.928571                       # average ReadExReq miss latency ((Tick/Count))
board.cache_hierarchy.l2-cache-0.ReadExReq.mshrMisses::processor.switch2.core.data           42                       # number of ReadExReq MSHR misses (Count)
board.cache_hierarchy.l2-cache-0.ReadExReq.mshrMisses::total           42                       # number of ReadExReq MSHR misses (Count)
board.cache_hierarchy.l2-cache-0.ReadExReq.mshrMissLatency::processor.switch2.core.data      2238093                       # number of ReadExReq MSHR miss ticks (Tick)
board.cache_hierarchy.l2-cache-0.ReadExReq.mshrMissLatency::total      2238093                       # number of ReadExReq MSHR miss ticks (Tick)
board.cache_hierarchy.l2-cache-0.ReadExReq.mshrMissRate::processor.switch2.core.data     0.003457                       # mshr miss rate for ReadExReq accesses (Ratio)
board.cache_hierarchy.l2-cache-0.ReadExReq.mshrMissRate::total     0.003457                       # mshr miss rate for ReadExReq accesses (Ratio)
board.cache_hierarchy.l2-cache-0.ReadExReq.avgMshrMissLatency::processor.switch2.core.data 53287.928571                       # average ReadExReq mshr miss latency ((Tick/Count))
board.cache_hierarchy.l2-cache-0.ReadExReq.avgMshrMissLatency::total 53287.928571                       # average ReadExReq mshr miss latency ((Tick/Count))
board.cache_hierarchy.l2-cache-0.ReadSharedReq.hits::processor.switch2.core.data       374599                       # number of ReadSharedReq hits (Count)
board.cache_hierarchy.l2-cache-0.ReadSharedReq.hits::total       374599                       # number of ReadSharedReq hits (Count)
board.cache_hierarchy.l2-cache-0.ReadSharedReq.misses::processor.switch2.core.inst            2                       # number of ReadSharedReq misses (Count)
board.cache_hierarchy.l2-cache-0.ReadSharedReq.misses::processor.switch2.core.data        12470                       # number of ReadSharedReq misses (Count)
board.cache_hierarchy.l2-cache-0.ReadSharedReq.misses::total        12472                       # number of ReadSharedReq misses (Count)
board.cache_hierarchy.l2-cache-0.ReadSharedReq.missLatency::processor.switch2.core.inst       103230                       # number of ReadSharedReq miss ticks (Tick)
board.cache_hierarchy.l2-cache-0.ReadSharedReq.missLatency::processor.switch2.core.data    744885369                       # number of ReadSharedReq miss ticks (Tick)
board.cache_hierarchy.l2-cache-0.ReadSharedReq.missLatency::total    744988599                       # number of ReadSharedReq miss ticks (Tick)
board.cache_hierarchy.l2-cache-0.ReadSharedReq.accesses::processor.switch2.core.inst            2                       # number of ReadSharedReq accesses(hits+misses) (Count)
board.cache_hierarchy.l2-cache-0.ReadSharedReq.accesses::processor.switch2.core.data       387069                       # number of ReadSharedReq accesses(hits+misses) (Count)
board.cache_hierarchy.l2-cache-0.ReadSharedReq.accesses::total       387071                       # number of ReadSharedReq accesses(hits+misses) (Count)
board.cache_hierarchy.l2-cache-0.ReadSharedReq.missRate::processor.switch2.core.inst            1                       # miss rate for ReadSharedReq accesses (Ratio)
board.cache_hierarchy.l2-cache-0.ReadSharedReq.missRate::processor.switch2.core.data     0.032216                       # miss rate for ReadSharedReq accesses (Ratio)
board.cache_hierarchy.l2-cache-0.ReadSharedReq.missRate::total     0.032221                       # miss rate for ReadSharedReq accesses (Ratio)
board.cache_hierarchy.l2-cache-0.ReadSharedReq.avgMissLatency::processor.switch2.core.inst        51615                       # average ReadSharedReq miss latency ((Tick/Count))
board.cache_hierarchy.l2-cache-0.ReadSharedReq.avgMissLatency::processor.switch2.core.data 59734.191580                       # average ReadSharedReq miss latency ((Tick/Count))
board.cache_hierarchy.l2-cache-0.ReadSharedReq.avgMissLatency::total 59732.889593                       # average ReadSharedReq miss latency ((Tick/Count))
board.cache_hierarchy.l2-cache-0.ReadSharedReq.mshrMisses::processor.switch2.core.inst            2                       # number of ReadSharedReq MSHR misses (Count)
board.cache_hierarchy.l2-cache-0.ReadSharedReq.mshrMisses::processor.switch2.core.data        12470                       # number of ReadSharedReq MSHR misses (Count)
board.cache_hierarchy.l2-cache-0.ReadSharedReq.mshrMisses::total        12472                       # number of ReadSharedReq MSHR misses (Count)
board.cache_hierarchy.l2-cache-0.ReadSharedReq.mshrMissLatency::processor.switch2.core.inst       101232                       # number of ReadSharedReq MSHR miss ticks (Tick)
board.cache_hierarchy.l2-cache-0.ReadSharedReq.mshrMissLatency::processor.switch2.core.data    732427839                       # number of ReadSharedReq MSHR miss ticks (Tick)
board.cache_hierarchy.l2-cache-0.ReadSharedReq.mshrMissLatency::total    732529071                       # number of ReadSharedReq MSHR miss ticks (Tick)
board.cache_hierarchy.l2-cache-0.ReadSharedReq.mshrMissRate::processor.switch2.core.inst            1                       # mshr miss rate for ReadSharedReq accesses (Ratio)
board.cache_hierarchy.l2-cache-0.ReadSharedReq.mshrMissRate::processor.switch2.core.data     0.032216                       # mshr miss rate for ReadSharedReq accesses (Ratio)
board.cache_hierarchy.l2-cache-0.ReadSharedReq.mshrMissRate::total     0.032221                       # mshr miss rate for ReadSharedReq accesses (Ratio)
board.cache_hierarchy.l2-cache-0.ReadSharedReq.avgMshrMissLatency::processor.switch2.core.inst        50616                       # average ReadSharedReq mshr miss latency ((Tick/Count))
board.cache_hierarchy.l2-cache-0.ReadSharedReq.avgMshrMissLatency::processor.switch2.core.data 58735.191580                       # average ReadSharedReq mshr miss latency ((Tick/Count))
board.cache_hierarchy.l2-cache-0.ReadSharedReq.avgMshrMissLatency::total 58733.889593                       # average ReadSharedReq mshr miss latency ((Tick/Count))
board.cache_hierarchy.l2-cache-0.WritebackDirty.hits::writebacks       106009                       # number of WritebackDirty hits (Count)
board.cache_hierarchy.l2-cache-0.WritebackDirty.hits::total       106009                       # number of WritebackDirty hits (Count)
board.cache_hierarchy.l2-cache-0.WritebackDirty.accesses::writebacks       106009                       # number of WritebackDirty accesses(hits+misses) (Count)
board.cache_hierarchy.l2-cache-0.WritebackDirty.accesses::total       106009                       # number of WritebackDirty accesses(hits+misses) (Count)
board.cache_hierarchy.l2-cache-0.power_state.pwrStateResidencyTicks::UNDEFINED 226949050478962                       # Cumulative time (in ticks) in various power states (Tick)
board.cache_hierarchy.l2-cache-0.prefetcher.demandMshrMisses        12514                       # demands not covered by prefetchs (Count)
board.cache_hierarchy.l2-cache-0.prefetcher.pfIssued           70                       # number of hwpf issued (Count)
board.cache_hierarchy.l2-cache-0.prefetcher.pfUnused            8                       # number of HardPF blocks evicted w/o reference (Count)
board.cache_hierarchy.l2-cache-0.prefetcher.pfUseful           47                       # number of useful prefetch (Count)
board.cache_hierarchy.l2-cache-0.prefetcher.pfUsefulButMiss            0                       # number of hit on prefetch but cache block is not in an usable state (Count)
board.cache_hierarchy.l2-cache-0.prefetcher.accuracy     0.671429                       # accuracy of the prefetcher (Count)
board.cache_hierarchy.l2-cache-0.prefetcher.coverage     0.003742                       # coverage brought by this prefetcher (Count)
board.cache_hierarchy.l2-cache-0.prefetcher.pfHitInCache           13                       # number of prefetches hitting in cache (Count)
board.cache_hierarchy.l2-cache-0.prefetcher.pfHitInMSHR            0                       # number of prefetches hitting in a MSHR (Count)
board.cache_hierarchy.l2-cache-0.prefetcher.pfHitInWB            0                       # number of prefetches hit in the Write Buffer (Count)
board.cache_hierarchy.l2-cache-0.prefetcher.pfLate           13                       # number of late prefetches (hitting in cache, MSHR or WB) (Count)
board.cache_hierarchy.l2-cache-0.prefetcher.pfIdentified           70                       # number of prefetch candidates identified (Count)
board.cache_hierarchy.l2-cache-0.prefetcher.pfBufferHit            0                       # number of redundant prefetches already in prefetch queue (Count)
board.cache_hierarchy.l2-cache-0.prefetcher.pfInCache            0                       # number of redundant prefetches already in cache/mshr dropped (Count)
board.cache_hierarchy.l2-cache-0.prefetcher.pfRemovedDemand            0                       # number of prefetches dropped due to a demand for the same address (Count)
board.cache_hierarchy.l2-cache-0.prefetcher.pfRemovedFull            0                       # number of prefetches dropped due to prefetch queue size (Count)
board.cache_hierarchy.l2-cache-0.prefetcher.pfSpanPage           68                       # number of prefetches that crossed the page (Count)
board.cache_hierarchy.l2-cache-0.prefetcher.pfUsefulSpanPage           17                       # number of prefetches that is useful and crossed the page (Count)
board.cache_hierarchy.l2-cache-0.prefetcher.power_state.pwrStateResidencyTicks::UNDEFINED 226949050478962                       # Cumulative time (in ticks) in various power states (Tick)
board.cache_hierarchy.l2-cache-0.tags.tagsInUse         4096                       # Average ticks per tags in use ((Tick/Count))
board.cache_hierarchy.l2-cache-0.tags.totalRefs      1992922                       # Total number of references to valid blocks. (Count)
board.cache_hierarchy.l2-cache-0.tags.sampledRefs        17242                       # Sample count of references to valid blocks. (Count)
board.cache_hierarchy.l2-cache-0.tags.avgRefs   115.585315                       # Average number of references to valid blocks. ((Count/Count))
board.cache_hierarchy.l2-cache-0.tags.warmupTick            0                       # The tick when the warmup percentage was hit. (Tick)
board.cache_hierarchy.l2-cache-0.tags.occupancies::writebacks   170.460447                       # Average occupied blocks per tick, per requestor ((Count/Tick))
board.cache_hierarchy.l2-cache-0.tags.occupancies::cache_hierarchy.l2-cache-0.prefetcher    12.101806                       # Average occupied blocks per tick, per requestor ((Count/Tick))
board.cache_hierarchy.l2-cache-0.tags.occupancies::processor.switch1.core.data  1748.578852                       # Average occupied blocks per tick, per requestor ((Count/Tick))
board.cache_hierarchy.l2-cache-0.tags.occupancies::processor.switch2.core.inst     0.050339                       # Average occupied blocks per tick, per requestor ((Count/Tick))
board.cache_hierarchy.l2-cache-0.tags.occupancies::processor.switch2.core.data  2164.808556                       # Average occupied blocks per tick, per requestor ((Count/Tick))
board.cache_hierarchy.l2-cache-0.tags.avgOccs::writebacks     0.041616                       # Average percentage of cache occupancy ((Ratio/Tick))
board.cache_hierarchy.l2-cache-0.tags.avgOccs::cache_hierarchy.l2-cache-0.prefetcher     0.002955                       # Average percentage of cache occupancy ((Ratio/Tick))
board.cache_hierarchy.l2-cache-0.tags.avgOccs::processor.switch1.core.data     0.426899                       # Average percentage of cache occupancy ((Ratio/Tick))
board.cache_hierarchy.l2-cache-0.tags.avgOccs::processor.switch2.core.inst     0.000012                       # Average percentage of cache occupancy ((Ratio/Tick))
board.cache_hierarchy.l2-cache-0.tags.avgOccs::processor.switch2.core.data     0.528518                       # Average percentage of cache occupancy ((Ratio/Tick))
board.cache_hierarchy.l2-cache-0.tags.avgOccs::total            1                       # Average percentage of cache occupancy ((Ratio/Tick))
board.cache_hierarchy.l2-cache-0.tags.occupanciesTaskId::1022           18                       # Occupied blocks per task id (Count)
board.cache_hierarchy.l2-cache-0.tags.occupanciesTaskId::1024         4078                       # Occupied blocks per task id (Count)
board.cache_hierarchy.l2-cache-0.tags.ageTaskId_1022::2           14                       # Occupied blocks per task id, per block age (Count)
board.cache_hierarchy.l2-cache-0.tags.ageTaskId_1022::4            4                       # Occupied blocks per task id, per block age (Count)
board.cache_hierarchy.l2-cache-0.tags.ageTaskId_1024::1            2                       # Occupied blocks per task id, per block age (Count)
board.cache_hierarchy.l2-cache-0.tags.ageTaskId_1024::2          546                       # Occupied blocks per task id, per block age (Count)
board.cache_hierarchy.l2-cache-0.tags.ageTaskId_1024::3         2376                       # Occupied blocks per task id, per block age (Count)
board.cache_hierarchy.l2-cache-0.tags.ageTaskId_1024::4         1154                       # Occupied blocks per task id, per block age (Count)
board.cache_hierarchy.l2-cache-0.tags.ratioOccsTaskId::1022     0.004395                       # Ratio of occupied blocks and all blocks, per task id (Ratio)
board.cache_hierarchy.l2-cache-0.tags.ratioOccsTaskId::1024     0.995605                       # Ratio of occupied blocks and all blocks, per task id (Ratio)
board.cache_hierarchy.l2-cache-0.tags.tagAccesses      6400634                       # Number of tag accesses (Count)
board.cache_hierarchy.l2-cache-0.tags.dataAccesses      6400634                       # Number of data accesses (Count)
board.cache_hierarchy.l2-cache-0.tags.power_state.pwrStateResidencyTicks::UNDEFINED 226949050478962                       # Cumulative time (in ticks) in various power states (Tick)
board.cache_hierarchy.l2buses.transDist::ReadResp       387071                       # Transaction distribution (Count)
board.cache_hierarchy.l2buses.transDist::WritebackDirty       109184                       # Transaction distribution (Count)
board.cache_hierarchy.l2buses.transDist::CleanEvict       303179                       # Transaction distribution (Count)
board.cache_hierarchy.l2buses.transDist::HardPFReq           57                       # Transaction distribution (Count)
board.cache_hierarchy.l2buses.transDist::ReadExReq        12148                       # Transaction distribution (Count)
board.cache_hierarchy.l2buses.transDist::ReadExResp        12148                       # Transaction distribution (Count)
board.cache_hierarchy.l2buses.transDist::ReadSharedReq       387071                       # Transaction distribution (Count)
board.cache_hierarchy.l2buses.pktCount_board.cache_hierarchy.l1i-cache-0.mem_side_port::board.cache_hierarchy.l2-cache-0.cpu_side_port            4                       # Packet count per connected requestor and responder (Count)
board.cache_hierarchy.l2buses.pktCount_board.cache_hierarchy.l1d-cache-0.mem_side_port::board.cache_hierarchy.l2-cache-0.cpu_side_port      1197651                       # Packet count per connected requestor and responder (Count)
board.cache_hierarchy.l2buses.pktCount::total      1197655                       # Packet count per connected requestor and responder (Count)
board.cache_hierarchy.l2buses.pktSize_board.cache_hierarchy.l1i-cache-0.mem_side_port::board.cache_hierarchy.l2-cache-0.cpu_side_port          128                       # Cumulative packet size per connected requestor and responder (Byte)
board.cache_hierarchy.l2buses.pktSize_board.cache_hierarchy.l1d-cache-0.mem_side_port::board.cache_hierarchy.l2-cache-0.cpu_side_port     32334464                       # Cumulative packet size per connected requestor and responder (Byte)
board.cache_hierarchy.l2buses.pktSize::total     32334592                       # Cumulative packet size per connected requestor and responder (Byte)
board.cache_hierarchy.l2buses.snoops            13203                       # Total snoops (Count)
board.cache_hierarchy.l2buses.snoopTraffic       203200                       # Total snoop traffic (Byte)
board.cache_hierarchy.l2buses.snoopFanout::samples       412422                       # Request fanout histogram (Count)
board.cache_hierarchy.l2buses.snoopFanout::mean     0.011527                       # Request fanout histogram (Count)
board.cache_hierarchy.l2buses.snoopFanout::stdev     0.106744                       # Request fanout histogram (Count)
board.cache_hierarchy.l2buses.snoopFanout::underflows            0      0.00%      0.00% # Request fanout histogram (Count)
board.cache_hierarchy.l2buses.snoopFanout::0       407668     98.85%     98.85% # Request fanout histogram (Count)
board.cache_hierarchy.l2buses.snoopFanout::1         4754      1.15%    100.00% # Request fanout histogram (Count)
board.cache_hierarchy.l2buses.snoopFanout::2            0      0.00%    100.00% # Request fanout histogram (Count)
board.cache_hierarchy.l2buses.snoopFanout::overflows            0      0.00%    100.00% # Request fanout histogram (Count)
board.cache_hierarchy.l2buses.snoopFanout::min_value            0                       # Request fanout histogram (Count)
board.cache_hierarchy.l2buses.snoopFanout::max_value            1                       # Request fanout histogram (Count)
board.cache_hierarchy.l2buses.snoopFanout::total       412422                       # Request fanout histogram (Count)
board.cache_hierarchy.l2buses.power_state.pwrStateResidencyTicks::UNDEFINED 226949050478962                       # Cumulative time (in ticks) in various power states (Tick)
board.cache_hierarchy.l2buses.reqLayer0.occupancy    336481182                       # Layer occupancy (ticks) (Tick)
board.cache_hierarchy.l2buses.reqLayer0.utilization          0.0                       # Layer utilization (Ratio)
board.cache_hierarchy.l2buses.respLayer0.occupancy         1998                       # Layer occupancy (ticks) (Tick)
board.cache_hierarchy.l2buses.respLayer0.utilization          0.0                       # Layer utilization (Ratio)
board.cache_hierarchy.l2buses.respLayer1.occupancy    398817783                       # Layer occupancy (ticks) (Tick)
board.cache_hierarchy.l2buses.respLayer1.utilization          0.0                       # Layer utilization (Ratio)
board.cache_hierarchy.l2buses.snoop_filter.totRequests       798436                       # Total number of requests made to the snoop filter. (Count)
board.cache_hierarchy.l2buses.snoop_filter.hitSingleRequests       399217                       # Number of requests hitting in the snoop filter with a single holder of the requested data. (Count)
board.cache_hierarchy.l2buses.snoop_filter.hitMultiRequests            0                       # Number of requests hitting in the snoop filter with multiple (>1) holders of the requested data. (Count)
board.cache_hierarchy.l2buses.snoop_filter.totSnoops         4754                       # Total number of snoops made to the snoop filter. (Count)
board.cache_hierarchy.l2buses.snoop_filter.hitSingleSnoops         4754                       # Number of snoops hitting in the snoop filter with a single holder of the requested data. (Count)
board.cache_hierarchy.l2buses.snoop_filter.hitMultiSnoops            0                       # Number of snoops hitting in the snoop filter with multiple (>1) holders of the requested data. (Count)
board.cache_hierarchy.membus.transDist::ReadResp        12527                       # Transaction distribution (Count)
board.cache_hierarchy.membus.transDist::WritebackDirty         3175                       # Transaction distribution (Count)
board.cache_hierarchy.membus.transDist::CleanEvict         9389                       # Transaction distribution (Count)
board.cache_hierarchy.membus.transDist::ReadExReq           42                       # Transaction distribution (Count)
board.cache_hierarchy.membus.transDist::ReadExResp           42                       # Transaction distribution (Count)
board.cache_hierarchy.membus.transDist::ReadSharedReq        12527                       # Transaction distribution (Count)
board.cache_hierarchy.membus.pktCount_board.cache_hierarchy.l2-cache-0.mem_side_port::board.memory.mem_ctrl.port        37702                       # Packet count per connected requestor and responder (Count)
board.cache_hierarchy.membus.pktCount_board.cache_hierarchy.l2-cache-0.mem_side_port::total        37702                       # Packet count per connected requestor and responder (Count)
board.cache_hierarchy.membus.pktCount::total        37702                       # Packet count per connected requestor and responder (Count)
board.cache_hierarchy.membus.pktSize_board.cache_hierarchy.l2-cache-0.mem_side_port::board.memory.mem_ctrl.port      1007616                       # Cumulative packet size per connected requestor and responder (Byte)
board.cache_hierarchy.membus.pktSize_board.cache_hierarchy.l2-cache-0.mem_side_port::total      1007616                       # Cumulative packet size per connected requestor and responder (Byte)
board.cache_hierarchy.membus.pktSize::total      1007616                       # Cumulative packet size per connected requestor and responder (Byte)
board.cache_hierarchy.membus.snoops                 0                       # Total snoops (Count)
board.cache_hierarchy.membus.snoopTraffic            0                       # Total snoop traffic (Byte)
board.cache_hierarchy.membus.snoopFanout::samples        12569                       # Request fanout histogram (Count)
board.cache_hierarchy.membus.snoopFanout::mean            0                       # Request fanout histogram (Count)
board.cache_hierarchy.membus.snoopFanout::stdev            0                       # Request fanout histogram (Count)
board.cache_hierarchy.membus.snoopFanout::underflows            0      0.00%      0.00% # Request fanout histogram (Count)
board.cache_hierarchy.membus.snoopFanout::0        12569    100.00%    100.00% # Request fanout histogram (Count)
board.cache_hierarchy.membus.snoopFanout::1            0      0.00%    100.00% # Request fanout histogram (Count)
board.cache_hierarchy.membus.snoopFanout::overflows            0      0.00%    100.00% # Request fanout histogram (Count)
board.cache_hierarchy.membus.snoopFanout::min_value            0                       # Request fanout histogram (Count)
board.cache_hierarchy.membus.snoopFanout::max_value            0                       # Request fanout histogram (Count)
board.cache_hierarchy.membus.snoopFanout::total        12569                       # Request fanout histogram (Count)
board.cache_hierarchy.membus.badaddr_responder.power_state.pwrStateResidencyTicks::UNDEFINED 226949050478962                       # Cumulative time (in ticks) in various power states (Tick)
board.cache_hierarchy.membus.power_state.pwrStateResidencyTicks::UNDEFINED 226949050478962                       # Cumulative time (in ticks) in various power states (Tick)
board.cache_hierarchy.membus.reqLayer0.occupancy      9426564                       # Layer occupancy (ticks) (Tick)
board.cache_hierarchy.membus.reqLayer0.utilization          0.0                       # Layer utilization (Ratio)
board.cache_hierarchy.membus.respLayer1.occupancy     10411877                       # Layer occupancy (ticks) (Tick)
board.cache_hierarchy.membus.respLayer1.utilization          0.0                       # Layer utilization (Ratio)
board.cache_hierarchy.membus.snoop_filter.totRequests        25133                       # Total number of requests made to the snoop filter. (Count)
board.cache_hierarchy.membus.snoop_filter.hitSingleRequests        12564                       # Number of requests hitting in the snoop filter with a single holder of the requested data. (Count)
board.cache_hierarchy.membus.snoop_filter.hitMultiRequests            0                       # Number of requests hitting in the snoop filter with multiple (>1) holders of the requested data. (Count)
board.cache_hierarchy.membus.snoop_filter.totSnoops            0                       # Total number of snoops made to the snoop filter. (Count)
board.cache_hierarchy.membus.snoop_filter.hitSingleSnoops            0                       # Number of snoops hitting in the snoop filter with a single holder of the requested data. (Count)
board.cache_hierarchy.membus.snoop_filter.hitMultiSnoops            0                       # Number of snoops hitting in the snoop filter with multiple (>1) holders of the requested data. (Count)
board.clk_domain.clock                            333                       # Clock period in ticks (Tick)
board.clk_domain.voltage_domain.voltage             1                       # Voltage in Volts (Volt)
board.memory.mem_ctrl.avgPriority_writebacks::samples      3166.00                       # Average QoS priority value for accepted requests (Count)
board.memory.mem_ctrl.avgPriority_cache_hierarchy.l2-cache-0.prefetcher::samples        55.00                       # Average QoS priority value for accepted requests (Count)
board.memory.mem_ctrl.avgPriority_processor.switch2.core.inst::samples         2.00                       # Average QoS priority value for accepted requests (Count)
board.memory.mem_ctrl.avgPriority_processor.switch2.core.data::samples     12422.00                       # Average QoS priority value for accepted requests (Count)
board.memory.mem_ctrl.priorityMinLatency 0.000000018750                       # per QoS priority minimum request to response latency (Second)
board.memory.mem_ctrl.priorityMaxLatency 0.002260888714                       # per QoS priority maximum request to response latency (Second)
board.memory.mem_ctrl.numReadWriteTurnArounds          186                       # Number of turnarounds from READ to WRITE (Count)
board.memory.mem_ctrl.numWriteReadTurnArounds          186                       # Number of turnarounds from WRITE to READ (Count)
board.memory.mem_ctrl.numStayReadState          31049                       # Number of times bus staying in READ state (Count)
board.memory.mem_ctrl.numStayWriteState          2958                       # Number of times bus staying in WRITE state (Count)
board.memory.mem_ctrl.readReqs                  12569                       # Number of read requests accepted (Count)
board.memory.mem_ctrl.writeReqs                  3175                       # Number of write requests accepted (Count)
board.memory.mem_ctrl.readBursts                12569                       # Number of controller read bursts, including those serviced by the write queue (Count)
board.memory.mem_ctrl.writeBursts                3175                       # Number of controller write bursts, including those merged in the write queue (Count)
board.memory.mem_ctrl.servicedByWrQ                90                       # Number of controller read bursts serviced by the write queue (Count)
board.memory.mem_ctrl.mergedWrBursts                9                       # Number of controller write bursts merged with an existing one (Count)
board.memory.mem_ctrl.neitherReadNorWriteReqs            0                       # Number of requests that are neither read nor write (Count)
board.memory.mem_ctrl.avgRdQLen                  1.17                       # Average read queue length when enqueuing ((Count/Tick))
board.memory.mem_ctrl.avgWrQLen                 24.49                       # Average write queue length when enqueuing ((Count/Tick))
board.memory.mem_ctrl.numRdRetry                    0                       # Number of times read queue was full causing retry (Count)
board.memory.mem_ctrl.numWrRetry                    0                       # Number of times write queue was full causing retry (Count)
board.memory.mem_ctrl.readPktSize::0                0                       # Read request sizes (log2) (Count)
board.memory.mem_ctrl.readPktSize::1                0                       # Read request sizes (log2) (Count)
board.memory.mem_ctrl.readPktSize::2                0                       # Read request sizes (log2) (Count)
board.memory.mem_ctrl.readPktSize::3                0                       # Read request sizes (log2) (Count)
board.memory.mem_ctrl.readPktSize::4                0                       # Read request sizes (log2) (Count)
board.memory.mem_ctrl.readPktSize::5                0                       # Read request sizes (log2) (Count)
board.memory.mem_ctrl.readPktSize::6            12569                       # Read request sizes (log2) (Count)
board.memory.mem_ctrl.writePktSize::0               0                       # Write request sizes (log2) (Count)
board.memory.mem_ctrl.writePktSize::1               0                       # Write request sizes (log2) (Count)
board.memory.mem_ctrl.writePktSize::2               0                       # Write request sizes (log2) (Count)
board.memory.mem_ctrl.writePktSize::3               0                       # Write request sizes (log2) (Count)
board.memory.mem_ctrl.writePktSize::4               0                       # Write request sizes (log2) (Count)
board.memory.mem_ctrl.writePktSize::5               0                       # Write request sizes (log2) (Count)
board.memory.mem_ctrl.writePktSize::6            3175                       # Write request sizes (log2) (Count)
board.memory.mem_ctrl.rdQLenPdf::0               7423                       # What read queue length does an incoming req see (Count)
board.memory.mem_ctrl.rdQLenPdf::1               2329                       # What read queue length does an incoming req see (Count)
board.memory.mem_ctrl.rdQLenPdf::2                923                       # What read queue length does an incoming req see (Count)
board.memory.mem_ctrl.rdQLenPdf::3               1179                       # What read queue length does an incoming req see (Count)
board.memory.mem_ctrl.rdQLenPdf::4                405                       # What read queue length does an incoming req see (Count)
board.memory.mem_ctrl.rdQLenPdf::5                144                       # What read queue length does an incoming req see (Count)
board.memory.mem_ctrl.rdQLenPdf::6                 40                       # What read queue length does an incoming req see (Count)
board.memory.mem_ctrl.rdQLenPdf::7                 17                       # What read queue length does an incoming req see (Count)
board.memory.mem_ctrl.rdQLenPdf::8                  6                       # What read queue length does an incoming req see (Count)
board.memory.mem_ctrl.rdQLenPdf::9                  5                       # What read queue length does an incoming req see (Count)
board.memory.mem_ctrl.rdQLenPdf::10                 4                       # What read queue length does an incoming req see (Count)
board.memory.mem_ctrl.rdQLenPdf::11                 2                       # What read queue length does an incoming req see (Count)
board.memory.mem_ctrl.rdQLenPdf::12                 1                       # What read queue length does an incoming req see (Count)
board.memory.mem_ctrl.rdQLenPdf::13                 1                       # What read queue length does an incoming req see (Count)
board.memory.mem_ctrl.rdQLenPdf::14                 0                       # What read queue length does an incoming req see (Count)
board.memory.mem_ctrl.rdQLenPdf::15                 0                       # What read queue length does an incoming req see (Count)
board.memory.mem_ctrl.rdQLenPdf::16                 0                       # What read queue length does an incoming req see (Count)
board.memory.mem_ctrl.rdQLenPdf::17                 0                       # What read queue length does an incoming req see (Count)
board.memory.mem_ctrl.rdQLenPdf::18                 0                       # What read queue length does an incoming req see (Count)
board.memory.mem_ctrl.rdQLenPdf::19                 0                       # What read queue length does an incoming req see (Count)
board.memory.mem_ctrl.rdQLenPdf::20                 0                       # What read queue length does an incoming req see (Count)
board.memory.mem_ctrl.rdQLenPdf::21                 0                       # What read queue length does an incoming req see (Count)
board.memory.mem_ctrl.rdQLenPdf::22                 0                       # What read queue length does an incoming req see (Count)
board.memory.mem_ctrl.rdQLenPdf::23                 0                       # What read queue length does an incoming req see (Count)
board.memory.mem_ctrl.rdQLenPdf::24                 0                       # What read queue length does an incoming req see (Count)
board.memory.mem_ctrl.rdQLenPdf::25                 0                       # What read queue length does an incoming req see (Count)
board.memory.mem_ctrl.rdQLenPdf::26                 0                       # What read queue length does an incoming req see (Count)
[...]
board.processor.switch2.core.executeStats0.numMiscRegReads     22229339                       # Number of times the Misc registers were read (Count)
board.processor.switch2.core.executeStats0.numVecAluAccesses            0                       # Number of vector alu accesses (Count)
board.processor.switch2.core.executeStats0.numDiscardedOps            0                       # Number of ops (including micro ops) which were discarded before commit (Count)
board.processor.switch2.core.fetch.predictedBranches      1936587                       # Number of branches that fetch has predicted taken (Count)
board.processor.switch2.core.fetch.cycles     43551132                       # Number of cycles fetch has run and was not squashing or blocked (Cycle)
board.processor.switch2.core.fetch.squashCycles       137960                       # Number of cycles fetch has spent squashing (Cycle)
board.processor.switch2.core.fetch.cacheLines      5025948                       # Number of cache lines fetched (Count)
board.processor.switch2.core.fetch.icacheSquashes            2                       # Number of outstanding Icache misses that were squashed (Count)
board.processor.switch2.core.fetch.nisnDist::samples     43679341                       # Number of instructions fetched each cycle (Total) (Count)
board.processor.switch2.core.fetch.nisnDist::mean     1.821153                       # Number of instructions fetched each cycle (Total) (Count)
board.processor.switch2.core.fetch.nisnDist::stdev     0.508184                       # Number of instructions fetched each cycle (Total) (Count)
board.processor.switch2.core.fetch.nisnDist::underflows            0      0.00%      0.00% # Number of instructions fetched each cycle (Total) (Count)
board.processor.switch2.core.fetch.nisnDist::0      2432719      5.57%      5.57% # Number of instructions fetched each cycle (Total) (Count)
board.processor.switch2.core.fetch.nisnDist::1      2946487      6.75%     12.32% # Number of instructions fetched each cycle (Total) (Count)
board.processor.switch2.core.fetch.nisnDist::2     38300135     87.68%    100.00% # Number of instructions fetched each cycle (Total) (Count)
board.processor.switch2.core.fetch.nisnDist::overflows            0      0.00%    100.00% # Number of instructions fetched each cycle (Total) (Count)
board.processor.switch2.core.fetch.nisnDist::min_value            0                       # Number of instructions fetched each cycle (Total) (Count)
board.processor.switch2.core.fetch.nisnDist::max_value            2                       # Number of instructions fetched each cycle (Total) (Count)
board.processor.switch2.core.fetch.nisnDist::total     43679341                       # Number of instructions fetched each cycle (Total) (Count)
board.processor.switch2.core.fetchStats0.numInsts     54426373                       # Number of instructions fetched (thread level) (Count)
board.processor.switch2.core.fetchStats0.numOps            0                       # Number of ops (including micro ops) fetched (thread level) (Count)
board.processor.switch2.core.fetchStats0.fetchRate     1.246037                       # Number of inst fetches per cycle ((Count/Cycle))
board.processor.switch2.core.fetchStats0.numBranches      2523201                       # Number of branches fetched (Count)
board.processor.switch2.core.fetchStats0.branchRate     0.057766                       # Number of branch fetches per cycle (Ratio)
board.processor.switch2.core.fetchStats0.icacheStallCycles        59229                       # ICache total stall cycles (Cycle)
board.processor.switch2.core.fetchStats0.numFetchSuspends            0                       # Number of times Execute suspended instruction fetching (Count)
board.processor.switch2.core.iew.idleCycles            0                       # Number of cycles IEW is idle (Cycle)
board.processor.switch2.core.iew.squashCycles        68962                       # Number of cycles IEW is squashing (Cycle)
board.processor.switch2.core.iew.blockCycles       338189                       # Number of cycles IEW is blocking (Cycle)
board.processor.switch2.core.iew.unblockCycles        90471                       # Number of cycles IEW is unblocking (Cycle)
board.processor.switch2.core.iew.dispatchedInsts     78924229                       # Number of instructions dispatched to IQ (Count)
board.processor.switch2.core.iew.dispSquashedInsts       113644                       # Number of squashed instructions skipped by dispatch (Count)
board.processor.switch2.core.iew.dispLoadInsts     13041773                       # Number of dispatched load instructions (Count)
board.processor.switch2.core.iew.dispStoreInsts      3948748                       # Number of dispatched store instructions (Count)
board.processor.switch2.core.iew.dispNonSpecInsts            0                       # Number of dispatched non-speculative instructions (Count)
board.processor.switch2.core.iew.iqFullEvents         1192                       # Number of times the IQ has become full, causing a stall (Count)
board.processor.switch2.core.iew.lsqFullEvents        87350                       # Number of times the LSQ has become full, causing a stall (Count)
board.processor.switch2.core.iew.memOrderViolationEvents          629                       # Number of memory order violations (Count)
board.processor.switch2.core.iew.predictedTakenIncorrect        37800                       # Number of branches that were predicted taken incorrectly (Count)
board.processor.switch2.core.iew.predictedNotTakenIncorrect        31025                       # Number of branches that were predicted not taken incorrectly (Count)
board.processor.switch2.core.iew.branchMispredicts        68825                       # Number of branch mispredicts detected at execute (Count)
board.processor.switch2.core.iew.instsToCommit     78627124                       # Cumulative count of insts sent to commit (Count)
board.processor.switch2.core.iew.writebackCount     78626591                       # Cumulative count of insts written-back (Count)
board.processor.switch2.core.iew.producerInst     44466024                       # Number of instructions producing a value (Count)
board.processor.switch2.core.iew.consumerInst     70138018                       # Number of instructions consuming a value (Count)
board.processor.switch2.core.iew.wbRate      1.800077                       # Insts written-back per cycle ((Count/Cycle))
board.processor.switch2.core.iew.wbFanout     0.633979                       # Average fanout of values written-back ((Count/Count))
board.processor.switch2.core.lsq0.forwLoads       280000                       # Number of loads that had data forwarded from stores (Count)
board.processor.switch2.core.lsq0.squashedLoads        85116                       # Number of loads squashed (Count)
board.processor.switch2.core.lsq0.ignoredResponses           31                       # Number of memory responses ignored because the instruction is squashed (Count)
board.processor.switch2.core.lsq0.memOrderViolation          629                       # Number of memory ordering violations (Count)
board.processor.switch2.core.lsq0.squashedStores        16900                       # Number of stores squashed (Count)
board.processor.switch2.core.lsq0.rescheduledLoads            4                       # Number of loads that were rescheduled (Count)
board.processor.switch2.core.lsq0.blockedByCache            0                       # Number of times an access to memory failed due to the cache being blocked (Count)
board.processor.switch2.core.lsq0.loadToUse::samples     12956654                       # Distribution of cycle latency between the first time a load is issued and its completion (Unspecified)
board.processor.switch2.core.lsq0.loadToUse::mean     2.702454                       # Distribution of cycle latency between the first time a load is issued and its completion (Unspecified)
board.processor.switch2.core.lsq0.loadToUse::stdev     8.526603                       # Distribution of cycle latency between the first time a load is issued and its completion (Unspecified)
board.processor.switch2.core.lsq0.loadToUse::0-9     12897342     99.54%     99.54% # Distribution of cycle latency between the first time a load is issued and its completion (Unspecified)
board.processor.switch2.core.lsq0.loadToUse::10-19        36219      0.28%     99.82% # Distribution of cycle latency between the first time a load is issued and its completion (Unspecified)
board.processor.switch2.core.lsq0.loadToUse::20-29           67      0.00%     99.82% # Distribution of cycle latency between the first time a load is issued and its completion (Unspecified)
board.processor.switch2.core.lsq0.loadToUse::30-39          100      0.00%     99.82% # Distribution of cycle latency between the first time a load is issued and its completion (Unspecified)
board.processor.switch2.core.lsq0.loadToUse::40-49          160      0.00%     99.82% # Distribution of cycle latency between the first time a load is issued and its completion (Unspecified)
board.processor.switch2.core.lsq0.loadToUse::50-59          321      0.00%     99.83% # Distribution of cycle latency between the first time a load is issued and its completion (Unspecified)
board.processor.switch2.core.lsq0.loadToUse::60-69          127      0.00%     99.83% # Distribution of cycle latency between the first time a load is issued and its completion (Unspecified)
board.processor.switch2.core.lsq0.loadToUse::70-79           43      0.00%     99.83% # Distribution of cycle latency between the first time a load is issued and its completion (Unspecified)
board.processor.switch2.core.lsq0.loadToUse::80-89           54      0.00%     99.83% # Distribution of cycle latency between the first time a load is issued and its completion (Unspecified)
board.processor.switch2.core.lsq0.loadToUse::90-99           57      0.00%     99.83% # Distribution of cycle latency between the first time a load is issued and its completion (Unspecified)
board.processor.switch2.core.lsq0.loadToUse::100-109          145      0.00%     99.83% # Distribution of cycle latency between the first time a load is issued and its completion (Unspecified)
board.processor.switch2.core.lsq0.loadToUse::110-119          353      0.00%     99.83% # Distribution of cycle latency between the first time a load is issued and its completion (Unspecified)
board.processor.switch2.core.lsq0.loadToUse::120-129          656      0.01%     99.84% # Distribution of cycle latency between the first time a load is issued and its completion (Unspecified)
board.processor.switch2.core.lsq0.loadToUse::130-139         6913      0.05%     99.89% # Distribution of cycle latency between the first time a load is issued and its completion (Unspecified)
board.processor.switch2.core.lsq0.loadToUse::140-149         1329      0.01%     99.90% # Distribution of cycle latency between the first time a load is issued and its completion (Unspecified)
board.processor.switch2.core.lsq0.loadToUse::150-159          988      0.01%     99.91% # Distribution of cycle latency between the first time a load is issued and its completion (Unspecified)
board.processor.switch2.core.lsq0.loadToUse::160-169          818      0.01%     99.92% # Distribution of cycle latency between the first time a load is issued and its completion (Unspecified)
board.processor.switch2.core.lsq0.loadToUse::170-179         5844      0.05%     99.96% # Distribution of cycle latency between the first time a load is issued and its completion (Unspecified)
board.processor.switch2.core.lsq0.loadToUse::180-189         2549      0.02%     99.98% # Distribution of cycle latency between the first time a load is issued and its completion (Unspecified)
board.processor.switch2.core.lsq0.loadToUse::190-199          256      0.00%     99.98% # Distribution of cycle latency between the first time a load is issued and its completion (Unspecified)
board.processor.switch2.core.lsq0.loadToUse::200-209          195      0.00%     99.98% # Distribution of cycle latency between the first time a load is issued and its completion (Unspecified)
board.processor.switch2.core.lsq0.loadToUse::210-219          242      0.00%     99.99% # Distribution of cycle latency between the first time a load is issued and its completion (Unspecified)
board.processor.switch2.core.lsq0.loadToUse::220-229          907      0.01%     99.99% # Distribution of cycle latency between the first time a load is issued and its completion (Unspecified)
board.processor.switch2.core.lsq0.loadToUse::230-239           86      0.00%     99.99% # Distribution of cycle latency between the first time a load is issued and its completion (Unspecified)
board.processor.switch2.core.lsq0.loadToUse::240-249           23      0.00%     99.99% # Distribution of cycle latency between the first time a load is issued and its completion (Unspecified)
board.processor.switch2.core.lsq0.loadToUse::250-259           11      0.00%     99.99% # Distribution of cycle latency between the first time a load is issued and its completion (Unspecified)
board.processor.switch2.core.lsq0.loadToUse::260-269           17      0.00%     99.99% # Distribution of cycle latency between the first time a load is issued and its completion (Unspecified)
board.processor.switch2.core.lsq0.loadToUse::270-279           13      0.00%     99.99% # Distribution of cycle latency between the first time a load is issued and its completion (Unspecified)
board.processor.switch2.core.lsq0.loadToUse::280-289           17      0.00%     99.99% # Distribution of cycle latency between the first time a load is issued and its completion (Unspecified)
board.processor.switch2.core.lsq0.loadToUse::290-299           17      0.00%     99.99% # Distribution of cycle latency between the first time a load is issued and its completion (Unspecified)
board.processor.switch2.core.lsq0.loadToUse::overflows          785      0.01%    100.00% # Distribution of cycle latency between the first time a load is issued and its completion (Unspecified)
board.processor.switch2.core.lsq0.loadToUse::min_value            2                       # Distribution of cycle latency between the first time a load is issued and its completion (Unspecified)
board.processor.switch2.core.lsq0.loadToUse::max_value         1397                       # Distribution of cycle latency between the first time a load is issued and its completion (Unspecified)
board.processor.switch2.core.lsq0.loadToUse::total     12956654                       # Distribution of cycle latency between the first time a load is issued and its completion (Unspecified)
board.processor.switch2.core.mmu.dtb.rdAccesses     13003725                       # TLB accesses on read requests (Count)
board.processor.switch2.core.mmu.dtb.wrAccesses      3946252                       # TLB accesses on write requests (Count)
board.processor.switch2.core.mmu.dtb.rdMisses          912                       # TLB misses on read requests (Count)
board.processor.switch2.core.mmu.dtb.wrMisses           11                       # TLB misses on write requests (Count)
board.processor.switch2.core.mmu.dtb.walker.power_state.pwrStateResidencyTicks::UNDEFINED 226949050478962                       # Cumulative time (in ticks) in various power states (Tick)
board.processor.switch2.core.mmu.itb.rdAccesses            0                       # TLB accesses on read requests (Count)
board.processor.switch2.core.mmu.itb.wrAccesses      5025948                       # TLB accesses on write requests (Count)
board.processor.switch2.core.mmu.itb.rdMisses            0                       # TLB misses on read requests (Count)
board.processor.switch2.core.mmu.itb.wrMisses            7                       # TLB misses on write requests (Count)
board.processor.switch2.core.mmu.itb.walker.power_state.pwrStateResidencyTicks::UNDEFINED 226949050478962                       # Cumulative time (in ticks) in various power states (Tick)
board.processor.switch2.core.power_state.pwrStateResidencyTicks::OFF 226949050478962                       # Cumulative time (in ticks) in various power states (Tick)
board.processor.switch2.core.rename.squashCycles        68962                       # Number of cycles rename is squashing (Cycle)
board.processor.switch2.core.rename.idleCycles      1696985                       # Number of cycles rename is idle (Cycle)
board.processor.switch2.core.rename.blockCycles       596123                       # Number of cycles rename is blocking (Cycle)
board.processor.switch2.core.rename.serializeStallCycles            0                       # count of cycles rename stalled for serializing inst (Cycle)
board.processor.switch2.core.rename.runCycles     40997726                       # Number of cycles rename is running (Cycle)
board.processor.switch2.core.rename.unblockCycles       319515                       # Number of cycles rename is unblocking (Cycle)
board.processor.switch2.core.rename.renamedInsts     79184265                       # Number of instructions processed by rename (Count)
board.processor.switch2.core.rename.ROBFullEvents         3065                       # Number of times rename has blocked due to ROB full (Count)
board.processor.switch2.core.rename.IQFullEvents         9071                       # Number of times rename has blocked due to IQ full (Count)
board.processor.switch2.core.rename.LQFullEvents       296064                       # Number of times rename has blocked due to LQ full (Count)
board.processor.switch2.core.rename.SQFullEvents          856                       # Number of times rename has blocked due to SQ full (Count)
board.processor.switch2.core.rename.fullRegistersEvents            6                       # Number of times there has been no free registers (Count)
board.processor.switch2.core.rename.renamedOperands    104496518                       # Number of destination operands rename has renamed (Count)
board.processor.switch2.core.rename.lookups    223185947                       # Number of register rename lookups that rename has made (Count)
board.processor.switch2.core.rename.intLookups     45700330                       # Number of integer rename lookups (Count)
board.processor.switch2.core.rename.fpLookups     91509281                       # Number of floating rename lookups (Count)
board.processor.switch2.core.rename.committedMaps    102777259                       # Number of HB maps that are committed (Count)
board.processor.switch2.core.rename.undoneMaps      1719246                       # Number of HB maps that are undone due to squashing (Count)
board.processor.switch2.core.rename.serializing            0                       # count of serializing insts renamed (Count)
board.processor.switch2.core.rename.tempSerializing            0                       # count of temporary serializing insts renamed (Count)
board.processor.switch2.core.rename.skidInsts        59902                       # count of insts added to the skid buffer (Count)
board.processor.switch2.core.rob.reads       84644578                       # The number of ROB reads (Count)
board.processor.switch2.core.rob.writes     157947782                       # The number of ROB writes (Count)
board.processor.switch2.core.thread_0.numInsts     53692047                       # Number of Instructions committed (Count)
board.processor.switch2.core.thread_0.numOps     78295365                       # Number of Ops committed (Count)
board.processor.switch2.core.thread_0.numMemRefs            0                       # Number of Memory References (Count)
board.workload.inst.arm                             0                       # number of arm instructions executed (Count)
board.workload.inst.quiesce                         0                       # number of quiesce instructions executed (Count)

---------- End Simulation Statistics   ----------
