
---------- Begin Simulation Statistics ----------
simSeconds                                   0.014362                       # Number of seconds simulated (Second)
simTicks                                  14362238838                       # Number of ticks simulated (Tick)
finalTick                                227209126493611                       # Number of ticks from beginning of simulation (restored from checkpoints and never reset) (Tick)
simFreq                                  1000000000000                       # The number of ticks per simulated second ((Tick/Second))
hostSeconds                                    202.91                       # Real time elapsed on the host (Second)
hostTickRate                                 70779773                       # The number of ticks simulated per host second (ticks/s) ((Tick/Second))
hostMemory                                    4389572                       # Number of bytes of host memory used (Byte)
simInsts                                 1646065479681                       # Number of instructions simulated (Count)
simOps                                   1646183573732                       # Number of ops (including micro ops) simulated (Count)
hostInstRate                               8112110145                       # Simulator instruction rate (inst/s) ((Count/Second))
hostOpRate                                 8112691814                       # Simulator op (including micro ops) rate (op/s) ((Count/Second))
board.cache_hierarchy.l1d-cache-0.demandHits::processor.switch2.core.data     15842952                       # number of demand (read+write) hits (Count)
board.cache_hierarchy.l1d-cache-0.demandHits::total     15842952                       # number of demand (read+write) hits (Count)
board.cache_hierarchy.l1d-cache-0.overallHits::processor.switch2.core.data     15842952                       # number of overall hits (Count)
board.cache_hierarchy.l1d-cache-0.overallHits::total     15842952                       # number of overall hits (Count)
board.cache_hierarchy.l1d-cache-0.demandMisses::processor.switch2.core.data       824986                       # number of demand (read+write) misses (Count)
board.cache_hierarchy.l1d-cache-0.demandMisses::total       824986                       # number of demand (read+write) misses (Count)
board.cache_hierarchy.l1d-cache-0.overallMisses::processor.switch2.core.data       824986                       # number of overall misses (Count)
board.cache_hierarchy.l1d-cache-0.overallMisses::total       824986                       # number of overall misses (Count)
board.cache_hierarchy.l1d-cache-0.demandMissLatency::processor.switch2.core.data   2699787177                       # number of demand (read+write) miss ticks (Tick)
board.cache_hierarchy.l1d-cache-0.demandMissLatency::total   2699787177                       # number of demand (read+write) miss ticks (Tick)
board.cache_hierarchy.l1d-cache-0.overallMissLatency::processor.switch2.core.data   2699787177                       # number of overall miss ticks (Tick)
board.cache_hierarchy.l1d-cache-0.overallMissLatency::total   2699787177                       # number of overall miss ticks (Tick)
board.cache_hierarchy.l1d-cache-0.demandAccesses::processor.switch2.core.data     16667938                       # number of demand (read+write) accesses (Count)
board.cache_hierarchy.l1d-cache-0.demandAccesses::total     16667938                       # number of demand (read+write) accesses (Count)
board.cache_hierarchy.l1d-cache-0.overallAccesses::processor.switch2.core.data     16667938                       # number of overall (read+write) accesses (Count)
board.cache_hierarchy.l1d-cache-0.overallAccesses::total     16667938                       # number of overall (read+write) accesses (Count)
board.cache_hierarchy.l1d-cache-0.demandMissRate::processor.switch2.core.data     0.049495                       # miss rate for demand accesses (Ratio)
board.cache_hierarchy.l1d-cache-0.demandMissRate::total     0.049495                       # miss rate for demand accesses (Ratio)
board.cache_hierarchy.l1d-cache-0.overallMissRate::processor.switch2.core.data     0.049495                       # miss rate for overall accesses (Ratio)
board.cache_hierarchy.l1d-cache-0.overallMissRate::total     0.049495                       # miss rate for overall accesses (Ratio)
board.cache_hierarchy.l1d-cache-0.demandAvgMissLatency::processor.switch2.core.data  3272.524839                       # average overall miss latency in ticks ((Tick/Count))
board.cache_hierarchy.l1d-cache-0.demandAvgMissLatency::total  3272.524839                       # average overall miss latency in ticks ((Tick/Count))
board.cache_hierarchy.l1d-cache-0.overallAvgMissLatency::processor.switch2.core.data  3272.524839                       # average overall miss latency ((Tick/Count))
board.cache_hierarchy.l1d-cache-0.overallAvgMissLatency::total  3272.524839                       # average overall miss latency ((Tick/Count))
board.cache_hierarchy.l1d-cache-0.blockedCycles::no_mshrs            0                       # number of cycles access was blocked (Cycle)
board.cache_hierarchy.l1d-cache-0.blockedCycles::no_targets            0                       # number of cycles access was blocked (Cycle)
board.cache_hierarchy.l1d-cache-0.blockedCauses::no_mshrs            0                       # number of times access was blocked (Count)
board.cache_hierarchy.l1d-cache-0.blockedCauses::no_targets            0                       # number of times access was blocked (Count)
board.cache_hierarchy.l1d-cache-0.avgBlocked::no_mshrs          nan                       # average number of cycles each access was blocked ((Cycle/Count))
board.cache_hierarchy.l1d-cache-0.avgBlocked::no_targets          nan                       # average number of cycles each access was blocked ((Cycle/Count))
board.cache_hierarchy.l1d-cache-0.writebacks::writebacks       106470                       # number of writebacks (Count)
board.cache_hierarchy.l1d-cache-0.writebacks::total       106470                       # number of writebacks (Count)
board.cache_hierarchy.l1d-cache-0.demandMshrHits::processor.switch2.core.data       425211                       # number of demand (read+write) MSHR hits (Count)
board.cache_hierarchy.l1d-cache-0.demandMshrHits::total       425211                       # number of demand (read+write) MSHR hits (Count)
board.cache_hierarchy.l1d-cache-0.overallMshrHits::processor.switch2.core.data       425211                       # number of overall MSHR hits (Count)
board.cache_hierarchy.l1d-cache-0.overallMshrHits::total       425211                       # number of overall MSHR hits (Count)
board.cache_hierarchy.l1d-cache-0.demandMshrMisses::processor.switch2.core.data       399775                       # number of demand (read+write) MSHR misses (Count)
board.cache_hierarchy.l1d-cache-0.demandMshrMisses::total       399775                       # number of demand (read+write) MSHR misses (Count)
board.cache_hierarchy.l1d-cache-0.overallMshrMisses::processor.switch2.core.data       399775                       # number of overall MSHR misses (Count)
board.cache_hierarchy.l1d-cache-0.overallMshrMisses::total       399775                       # number of overall MSHR misses (Count)
board.cache_hierarchy.l1d-cache-0.demandMshrMissLatency::processor.switch2.core.data   1271922804                       # number of demand (read+write) MSHR miss ticks (Tick)
board.cache_hierarchy.l1d-cache-0.demandMshrMissLatency::total   1271922804                       # number of demand (read+write) MSHR miss ticks (Tick)
board.cache_hierarchy.l1d-cache-0.overallMshrMissLatency::processor.switch2.core.data   1271922804                       # number of overall MSHR miss ticks (Tick)
board.cache_hierarchy.l1d-cache-0.overallMshrMissLatency::total   1271922804                       # number of overall MSHR miss ticks (Tick)
board.cache_hierarchy.l1d-cache-0.demandMshrMissRate::processor.switch2.core.data     0.023985                       # mshr miss ratio for demand accesses (Ratio)
board.cache_hierarchy.l1d-cache-0.demandMshrMissRate::total     0.023985                       # mshr miss ratio for demand accesses (Ratio)
board.cache_hierarchy.l1d-cache-0.overallMshrMissRate::processor.switch2.core.data     0.023985                       # mshr miss ratio for overall accesses (Ratio)
board.cache_hierarchy.l1d-cache-0.overallMshrMissRate::total     0.023985                       # mshr miss ratio for overall accesses (Ratio)
board.cache_hierarchy.l1d-cache-0.demandAvgMshrMissLatency::processor.switch2.core.data  3181.596658                       # average overall mshr miss latency ((Tick/Count))
board.cache_hierarchy.l1d-cache-0.demandAvgMshrMissLatency::total  3181.596658                       # average overall mshr miss latency ((Tick/Count))
board.cache_hierarchy.l1d-cache-0.overallAvgMshrMissLatency::processor.switch2.core.data  3181.596658                       # average overall mshr miss latency ((Tick/Count))
board.cache_hierarchy.l1d-cache-0.overallAvgMshrMissLatency::total  3181.596658                       # average overall mshr miss latency ((Tick/Count))
board.cache_hierarchy.l1d-cache-0.replacements       399775                       # number of replacements (Count)
board.cache_hierarchy.l1d-cache-0.ReadReq.hits::processor.switch2.core.data     11918512                       # number of ReadReq hits (Count)
board.cache_hierarchy.l1d-cache-0.ReadReq.hits::total     11918512                       # number of ReadReq hits (Count)
board.cache_hierarchy.l1d-cache-0.ReadReq.misses::processor.switch2.core.data       812817                       # number of ReadReq misses (Count)
board.cache_hierarchy.l1d-cache-0.ReadReq.misses::total       812817                       # number of ReadReq misses (Count)
board.cache_hierarchy.l1d-cache-0.ReadReq.missLatency::processor.switch2.core.data   2666192139                       # number of ReadReq miss ticks (Tick)
board.cache_hierarchy.l1d-cache-0.ReadReq.missLatency::total   2666192139                       # number of ReadReq miss ticks (Tick)
board.cache_hierarchy.l1d-cache-0.ReadReq.accesses::processor.switch2.core.data     12731329                       # number of ReadReq accesses(hits+misses) (Count)
board.cache_hierarchy.l1d-cache-0.ReadReq.accesses::total     12731329                       # number of ReadReq accesses(hits+misses) (Count)
board.cache_hierarchy.l1d-cache-0.ReadReq.missRate::processor.switch2.core.data     0.063844                       # miss rate for ReadReq accesses (Ratio)
board.cache_hierarchy.l1d-cache-0.ReadReq.missRate::total     0.063844                       # miss rate for ReadReq accesses (Ratio)
board.cache_hierarchy.l1d-cache-0.ReadReq.avgMissLatency::processor.switch2.core.data  3280.187470                       # average ReadReq miss latency ((Tick/Count))
board.cache_hierarchy.l1d-cache-0.ReadReq.avgMissLatency::total  3280.187470                       # average ReadReq miss latency ((Tick/Count))
board.cache_hierarchy.l1d-cache-0.ReadReq.mshrHits::processor.switch2.core.data       425201                       # number of ReadReq MSHR hits (Count)
board.cache_hierarchy.l1d-cache-0.ReadReq.mshrHits::total       425201                       # number of ReadReq MSHR hits (Count)
board.cache_hierarchy.l1d-cache-0.ReadReq.mshrMisses::processor.switch2.core.data       387616                       # number of ReadReq MSHR misses (Count)
board.cache_hierarchy.l1d-cache-0.ReadReq.mshrMisses::total       387616                       # number of ReadReq MSHR misses (Count)
board.cache_hierarchy.l1d-cache-0.ReadReq.mshrMissLatency::processor.switch2.core.data   1242396693                       # number of ReadReq MSHR miss ticks (Tick)
board.cache_hierarchy.l1d-cache-0.ReadReq.mshrMissLatency::total   1242396693                       # number of ReadReq MSHR miss ticks (Tick)
board.cache_hierarchy.l1d-cache-0.ReadReq.mshrMissRate::processor.switch2.core.data     0.030446                       # mshr miss rate for ReadReq accesses (Ratio)
board.cache_hierarchy.l1d-cache-0.ReadReq.mshrMissRate::total     0.030446                       # mshr miss rate for ReadReq accesses (Ratio)
board.cache_hierarchy.l1d-cache-0.ReadReq.avgMshrMissLatency::processor.switch2.core.data  3205.225514                       # average ReadReq mshr miss latency ((Tick/Count))
board.cache_hierarchy.l1d-cache-0.ReadReq.avgMshrMissLatency::total  3205.225514                       # average ReadReq mshr miss latency ((Tick/Count))
board.cache_hierarchy.l1d-cache-0.WriteReq.hits::processor.switch2.core.data      3924440                       # number of WriteReq hits (Count)
board.cache_hierarchy.l1d-cache-0.WriteReq.hits::total      3924440                       # number of WriteReq hits (Count)
board.cache_hierarchy.l1d-cache-0.WriteReq.misses::processor.switch2.core.data        12169                       # number of WriteReq misses (Count)
board.cache_hierarchy.l1d-cache-0.WriteReq.misses::total        12169                       # number of WriteReq misses (Count)
board.cache_hierarchy.l1d-cache-0.WriteReq.missLatency::processor.switch2.core.data     33595038                       # number of WriteReq miss ticks (Tick)
board.cache_hierarchy.l1d-cache-0.WriteReq.missLatency::total     33595038                       # number of WriteReq miss ticks (Tick)
board.cache_hierarchy.l1d-cache-0.WriteReq.accesses::processor.switch2.core.data      3936609                       # number of WriteReq accesses(hits+misses) (Count)
board.cache_hierarchy.l1d-cache-0.WriteReq.accesses::total      3936609                       # number of WriteReq accesses(hits+misses) (Count)
board.cache_hierarchy.l1d-cache-0.WriteReq.missRate::processor.switch2.core.data     0.003091                       # miss rate for WriteReq accesses (Ratio)
board.cache_hierarchy.l1d-cache-0.WriteReq.missRate::total     0.003091                       # miss rate for WriteReq accesses (Ratio)
board.cache_hierarchy.l1d-cache-0.WriteReq.avgMissLatency::processor.switch2.core.data  2760.706549                       # average WriteReq miss latency ((Tick/Count))
board.cache_hierarchy.l1d-cache-0.WriteReq.avgMissLatency::total  2760.706549                       # average WriteReq miss latency ((Tick/Count))
board.cache_hierarchy.l1d-cache-0.WriteReq.mshrHits::processor.switch2.core.data           10                       # number of WriteReq MSHR hits (Count)
board.cache_hierarchy.l1d-cache-0.WriteReq.mshrHits::total           10                       # number of WriteReq MSHR hits (Count)
board.cache_hierarchy.l1d-cache-0.WriteReq.mshrMisses::processor.switch2.core.data        12159                       # number of WriteReq MSHR misses (Count)
board.cache_hierarchy.l1d-cache-0.WriteReq.mshrMisses::total        12159                       # number of WriteReq MSHR misses (Count)
board.cache_hierarchy.l1d-cache-0.WriteReq.mshrMissLatency::processor.switch2.core.data     29526111                       # number of WriteReq MSHR miss ticks (Tick)
board.cache_hierarchy.l1d-cache-0.WriteReq.mshrMissLatency::total     29526111                       # number of WriteReq MSHR miss ticks (Tick)
board.cache_hierarchy.l1d-cache-0.WriteReq.mshrMissRate::processor.switch2.core.data     0.003089                       # mshr miss rate for WriteReq accesses (Ratio)
board.cache_hierarchy.l1d-cache-0.WriteReq.mshrMissRate::total     0.003089                       # mshr miss rate for WriteReq accesses (Ratio)
board.cache_hierarchy.l1d-cache-0.WriteReq.avgMshrMissLatency::processor.switch2.core.data  2428.333827                       # average WriteReq mshr miss latency ((Tick/Count))
board.cache_hierarchy.l1d-cache-0.WriteReq.avgMshrMissLatency::total  2428.333827                       # average WriteReq mshr miss latency ((Tick/Count))
board.cache_hierarchy.l1d-cache-0.power_state.pwrStateResidencyTicks::UNDEFINED 227209126493611                       # Cumulative time (in ticks) in various power states (Tick)
board.cache_hierarchy.l1d-cache-0.tags.tagsInUse          512                       # Average ticks per tags in use ((Tick/Count))
board.cache_hierarchy.l1d-cache-0.tags.totalRefs     17285204                       # Total number of references to valid blocks. (Count)
board.cache_hierarchy.l1d-cache-0.tags.sampledRefs       400287                       # Sample count of references to valid blocks. (Count)
board.cache_hierarchy.l1d-cache-0.tags.avgRefs    43.182027                       # Average number of references to valid blocks. ((Count/Count))
board.cache_hierarchy.l1d-cache-0.tags.warmupTick            0                       # The tick when the warmup percentage was hit. (Tick)
board.cache_hierarchy.l1d-cache-0.tags.occupancies::processor.switch1.core.data     7.019606                       # Average occupied blocks per tick, per requestor ((Count/Tick))
board.cache_hierarchy.l1d-cache-0.tags.occupancies::processor.switch2.core.data   504.980394                       # Average occupied blocks per tick, per requestor ((Count/Tick))
board.cache_hierarchy.l1d-cache-0.tags.avgOccs::processor.switch1.core.data     0.013710                       # Average percentage of cache occupancy ((Ratio/Tick))
board.cache_hierarchy.l1d-cache-0.tags.avgOccs::processor.switch2.core.data     0.986290                       # Average percentage of cache occupancy ((Ratio/Tick))
board.cache_hierarchy.l1d-cache-0.tags.avgOccs::total            1                       # Average percentage of cache occupancy ((Ratio/Tick))
board.cache_hierarchy.l1d-cache-0.tags.occupanciesTaskId::1024          512                       # Occupied blocks per task id (Count)
board.cache_hierarchy.l1d-cache-0.tags.ageTaskId_1024::0          113                       # Occupied blocks per task id, per block age (Count)
board.cache_hierarchy.l1d-cache-0.tags.ageTaskId_1024::1          203                       # Occupied blocks per task id, per block age (Count)
board.cache_hierarchy.l1d-cache-0.tags.ageTaskId_1024::2          195                       # Occupied blocks per task id, per block age (Count)
board.cache_hierarchy.l1d-cache-0.tags.ageTaskId_1024::3            1                       # Occupied blocks per task id, per block age (Count)
board.cache_hierarchy.l1d-cache-0.tags.ratioOccsTaskId::1024            1                       # Ratio of occupied blocks and all blocks, per task id (Ratio)
board.cache_hierarchy.l1d-cache-0.tags.tagAccesses     67071527                       # Number of tag accesses (Count)
board.cache_hierarchy.l1d-cache-0.tags.dataAccesses     67071527                       # Number of data accesses (Count)
board.cache_hierarchy.l1d-cache-0.tags.power_state.pwrStateResidencyTicks::UNDEFINED 227209126493611                       # Cumulative time (in ticks) in various power states (Tick)
board.cache_hierarchy.l1i-cache-0.demandHits::processor.switch2.core.inst      5019451                       # number of demand (read+write) hits (Count)
board.cache_hierarchy.l1i-cache-0.demandHits::total      5019451                       # number of demand (read+write) hits (Count)
board.cache_hierarchy.l1i-cache-0.overallHits::processor.switch2.core.inst      5019451                       # number of overall hits (Count)
board.cache_hierarchy.l1i-cache-0.overallHits::total      5019451                       # number of overall hits (Count)
board.cache_hierarchy.l1i-cache-0.demandMisses::processor.switch2.core.inst            1                       # number of demand (read+write) misses (Count)
board.cache_hierarchy.l1i-cache-0.demandMisses::total            1                       # number of demand (read+write) misses (Count)
board.cache_hierarchy.l1i-cache-0.overallMisses::processor.switch2.core.inst            1                       # number of overall misses (Count)
board.cache_hierarchy.l1i-cache-0.overallMisses::total            1                       # number of overall misses (Count)
board.cache_hierarchy.l1i-cache-0.demandMissLatency::processor.switch2.core.inst        59940                       # number of demand (read+write) miss ticks (Tick)
board.cache_hierarchy.l1i-cache-0.demandMissLatency::total        59940                       # number of demand (read+write) miss ticks (Tick)
board.cache_hierarchy.l1i-cache-0.overallMissLatency::processor.switch2.core.inst        59940                       # number of overall miss ticks (Tick)
board.cache_hierarchy.l1i-cache-0.overallMissLatency::total        59940                       # number of overall miss ticks (Tick)
board.cache_hierarchy.l1i-cache-0.demandAccesses::processor.switch2.core.inst      5019452                       # number of demand (read+write) accesses (Count)
board.cache_hierarchy.l1i-cache-0.demandAccesses::total      5019452                       # number of demand (read+write) accesses (Count)
board.cache_hierarchy.l1i-cache-0.overallAccesses::processor.switch2.core.inst      5019452                       # number of overall (read+write) accesses (Count)
board.cache_hierarchy.l1i-cache-0.overallAccesses::total      5019452                       # number of overall (read+write) accesses (Count)
board.cache_hierarchy.l1i-cache-0.demandMissRate::processor.switch2.core.inst     0.000000                       # miss rate for demand accesses (Ratio)
board.cache_hierarchy.l1i-cache-0.demandMissRate::total     0.000000                       # miss rate for demand accesses (Ratio)
board.cache_hierarchy.l1i-cache-0.overallMissRate::processor.switch2.core.inst     0.000000                       # miss rate for overall accesses (Ratio)
board.cache_hierarchy.l1i-cache-0.overallMissRate::total     0.000000                       # miss rate for overall accesses (Ratio)
board.cache_hierarchy.l1i-cache-0.demandAvgMissLatency::processor.switch2.core.inst        59940                       # average overall miss latency in ticks ((Tick/Count))
board.cache_hierarchy.l1i-cache-0.demandAvgMissLatency::total        59940                       # average overall miss latency in ticks ((Tick/Count))
board.cache_hierarchy.l1i-cache-0.overallAvgMissLatency::processor.switch2.core.inst        59940                       # average overall miss latency ((Tick/Count))
board.cache_hierarchy.l1i-cache-0.overallAvgMissLatency::total        59940                       # average overall miss latency ((Tick/Count))
board.cache_hierarchy.l1i-cache-0.blockedCycles::no_mshrs            0                       # number of cycles access was blocked (Cycle)
board.cache_hierarchy.l1i-cache-0.blockedCycles::no_targets            0                       # number of cycles access was blocked (Cycle)
board.cache_hierarchy.l1i-cache-0.blockedCauses::no_mshrs            0                       # number of times access was blocked (Count)
board.cache_hierarchy.l1i-cache-0.blockedCauses::no_targets            0                       # number of times access was blocked (Count)
board.cache_hierarchy.l1i-cache-0.avgBlocked::no_mshrs          nan                       # average number of cycles each access was blocked ((Cycle/Count))
board.cache_hierarchy.l1i-cache-0.avgBlocked::no_targets          nan                       # average number of cycles each access was blocked ((Cycle/Count))
board.cache_hierarchy.l1i-cache-0.demandMshrMisses::processor.switch2.core.inst            1                       # number of demand (read+write) MSHR misses (Count)
board.cache_hierarchy.l1i-cache-0.demandMshrMisses::total            1                       # number of demand (read+write) MSHR misses (Count)
board.cache_hierarchy.l1i-cache-0.overallMshrMisses::processor.switch2.core.inst            1                       # number of overall MSHR misses (Count)
board.cache_hierarchy.l1i-cache-0.overallMshrMisses::total            1                       # number of overall MSHR misses (Count)
board.cache_hierarchy.l1i-cache-0.demandMshrMissLatency::processor.switch2.core.inst        59607                       # number of demand (read+write) MSHR miss ticks (Tick)
board.cache_hierarchy.l1i-cache-0.demandMshrMissLatency::total        59607                       # number of demand (read+write) MSHR miss ticks (Tick)
board.cache_hierarchy.l1i-cache-0.overallMshrMissLatency::processor.switch2.core.inst        59607                       # number of overall MSHR miss ticks (Tick)
board.cache_hierarchy.l1i-cache-0.overallMshrMissLatency::total        59607                       # number of overall MSHR miss ticks (Tick)
board.cache_hierarchy.l1i-cache-0.demandMshrMissRate::processor.switch2.core.inst     0.000000                       # mshr miss ratio for demand accesses (Ratio)
board.cache_hierarchy.l1i-cache-0.demandMshrMissRate::total     0.000000                       # mshr miss ratio for demand accesses (Ratio)
board.cache_hierarchy.l1i-cache-0.overallMshrMissRate::processor.switch2.core.inst     0.000000                       # mshr miss ratio for overall accesses (Ratio)
board.cache_hierarchy.l1i-cache-0.overallMshrMissRate::total     0.000000                       # mshr miss ratio for overall accesses (Ratio)
board.cache_hierarchy.l1i-cache-0.demandAvgMshrMissLatency::processor.switch2.core.inst        59607                       # average overall mshr miss latency ((Tick/Count))
board.cache_hierarchy.l1i-cache-0.demandAvgMshrMissLatency::total        59607                       # average overall mshr miss latency ((Tick/Count))
board.cache_hierarchy.l1i-cache-0.overallAvgMshrMissLatency::processor.switch2.core.inst        59607                       # average overall mshr miss latency ((Tick/Count))
board.cache_hierarchy.l1i-cache-0.overallAvgMshrMissLatency::total        59607                       # average overall mshr miss latency ((Tick/Count))
board.cache_hierarchy.l1i-cache-0.replacements            0                       # number of replacements (Count)
board.cache_hierarchy.l1i-cache-0.ReadReq.hits::processor.switch2.core.inst      5019451                       # number of ReadReq hits (Count)
board.cache_hierarchy.l1i-cache-0.ReadReq.hits::total      5019451                       # number of ReadReq hits (Count)
board.cache_hierarchy.l1i-cache-0.ReadReq.misses::processor.switch2.core.inst            1                       # number of ReadReq misses (Count)
board.cache_hierarchy.l1i-cache-0.ReadReq.misses::total            1                       # number of ReadReq misses (Count)
board.cache_hierarchy.l1i-cache-0.ReadReq.missLatency::processor.switch2.core.inst        59940                       # number of ReadReq miss ticks (Tick)
board.cache_hierarchy.l1i-cache-0.ReadReq.missLatency::total        59940                       # number of ReadReq miss ticks (Tick)
board.cache_hierarchy.l1i-cache-0.ReadReq.accesses::processor.switch2.core.inst      5019452                       # number of ReadReq accesses(hits+misses) (Count)
board.cache_hierarchy.l1i-cache-0.ReadReq.accesses::total      5019452                       # number of ReadReq accesses(hits+misses) (Count)
board.cache_hierarchy.l1i-cache-0.ReadReq.missRate::processor.switch2.core.inst     0.000000                       # miss rate for ReadReq accesses (Ratio)
board.cache_hierarchy.l1i-cache-0.ReadReq.missRate::total     0.000000                       # miss rate for ReadReq accesses (Ratio)
board.cache_hierarchy.l1i-cache-0.ReadReq.avgMissLatency::processor.switch2.core.inst        59940                       # average ReadReq miss latency ((Tick/Count))
board.cache_hierarchy.l1i-cache-0.ReadReq.avgMissLatency::total        59940                       # average ReadReq miss latency ((Tick/Count))
board.cache_hierarchy.l1i-cache-0.ReadReq.mshrMisses::processor.switch2.core.inst            1                       # number of ReadReq MSHR misses (Count)
board.cache_hierarchy.l1i-cache-0.ReadReq.mshrMisses::total            1                       # number of ReadReq MSHR misses (Count)
board.cache_hierarchy.l1i-cache-0.ReadReq.mshrMissLatency::processor.switch2.core.inst        59607                       # number of ReadReq MSHR miss ticks (Tick)
board.cache_hierarchy.l1i-cache-0.ReadReq.mshrMissLatency::total        59607                       # number of ReadReq MSHR miss ticks (Tick)
board.cache_hierarchy.l1i-cache-0.ReadReq.mshrMissRate::processor.switch2.core.inst     0.000000                       # mshr miss rate for ReadReq accesses (Ratio)
board.cache_hierarchy.l1i-cache-0.ReadReq.mshrMissRate::total     0.000000                       # mshr miss rate for ReadReq accesses (Ratio)
board.cache_hierarchy.l1i-cache-0.ReadReq.avgMshrMissLatency::processor.switch2.core.inst        59607                       # average ReadReq mshr miss latency ((Tick/Count))
board.cache_hierarchy.l1i-cache-0.ReadReq.avgMshrMissLatency::total        59607                       # average ReadReq mshr miss latency ((Tick/Count))
board.cache_hierarchy.l1i-cache-0.power_state.pwrStateResidencyTicks::UNDEFINED 227209126493611                       # Cumulative time (in ticks) in various power states (Tick)
board.cache_hierarchy.l1i-cache-0.tags.tagsInUse   128.605172                       # Average ticks per tags in use ((Tick/Count))
board.cache_hierarchy.l1i-cache-0.tags.totalRefs     24091625                       # Total number of references to valid blocks. (Count)
board.cache_hierarchy.l1i-cache-0.tags.sampledRefs          129                       # Sample count of references to valid blocks. (Count)
board.cache_hierarchy.l1i-cache-0.tags.avgRefs 186756.782946                       # Average number of references to valid blocks. ((Count/Count))
board.cache_hierarchy.l1i-cache-0.tags.warmupTick            0                       # The tick when the warmup percentage was hit. (Tick)
board.cache_hierarchy.l1i-cache-0.tags.occupancies::processor.switch1.core.inst          128                       # Average occupied blocks per tick, per requestor ((Count/Tick))
board.cache_hierarchy.l1i-cache-0.tags.occupancies::processor.switch2.core.inst     0.605172                       # Average occupied blocks per tick, per requestor ((Count/Tick))
board.cache_hierarchy.l1i-cache-0.tags.avgOccs::processor.switch1.core.inst     0.250000                       # Average percentage of cache occupancy ((Ratio/Tick))
board.cache_hierarchy.l1i-cache-0.tags.avgOccs::processor.switch2.core.inst     0.001182                       # Average percentage of cache occupancy ((Ratio/Tick))
board.cache_hierarchy.l1i-cache-0.tags.avgOccs::total     0.251182                       # Average percentage of cache occupancy ((Ratio/Tick))
board.cache_hierarchy.l1i-cache-0.tags.occupanciesTaskId::1024          129                       # Occupied blocks per task id (Count)
board.cache_hierarchy.l1i-cache-0.tags.ageTaskId_1024::3            1                       # Occupied blocks per task id, per block age (Count)
board.cache_hierarchy.l1i-cache-0.tags.ageTaskId_1024::4          128                       # Occupied blocks per task id, per block age (Count)
board.cache_hierarchy.l1i-cache-0.tags.ratioOccsTaskId::1024     0.251953                       # Ratio of occupied blocks and all blocks, per task id (Ratio)
board.cache_hierarchy.l1i-cache-0.tags.tagAccesses     20077809                       # Number of tag accesses (Count)
board.cache_hierarchy.l1i-cache-0.tags.dataAccesses     20077809                       # Number of data accesses (Count)
board.cache_hierarchy.l1i-cache-0.tags.power_state.pwrStateResidencyTicks::UNDEFINED 227209126493611                       # Cumulative time (in ticks) in various power states (Tick)
board.cache_hierarchy.l2-cache-0.demandHits::processor.switch2.core.data       394235                       # number of demand (read+write) hits (Count)
board.cache_hierarchy.l2-cache-0.demandHits::total       394235                       # number of demand (read+write) hits (Count)
board.cache_hierarchy.l2-cache-0.overallHits::processor.switch2.core.data       394235                       # number of overall hits (Count)
board.cache_hierarchy.l2-cache-0.overallHits::total       394235                       # number of overall hits (Count)
board.cache_hierarchy.l2-cache-0.demandMisses::processor.switch2.core.inst            1                       # number of demand (read+write) misses (Count)
board.cache_hierarchy.l2-cache-0.demandMisses::processor.switch2.core.data         5540                       # number of demand (read+write) misses (Count)
board.cache_hierarchy.l2-cache-0.demandMisses::total         5541                       # number of demand (read+write) misses (Count)
board.cache_hierarchy.l2-cache-0.overallMisses::processor.switch2.core.inst            1                       # number of overall misses (Count)
board.cache_hierarchy.l2-cache-0.overallMisses::processor.switch2.core.data         5540                       # number of overall misses (Count)
board.cache_hierarchy.l2-cache-0.overallMisses::total         5541                       # number of overall misses (Count)
board.cache_hierarchy.l2-cache-0.demandMissLatency::processor.switch2.core.inst        58941                       # number of demand (read+write) miss ticks (Tick)
board.cache_hierarchy.l2-cache-0.demandMissLatency::processor.switch2.core.data    341858133                       # number of demand (read+write) miss ticks (Tick)
board.cache_hierarchy.l2-cache-0.demandMissLatency::total    341917074                       # number of demand (read+write) miss ticks (Tick)
board.cache_hierarchy.l2-cache-0.overallMissLatency::processor.switch2.core.inst        58941                       # number of overall miss ticks (Tick)
board.cache_hierarchy.l2-cache-0.overallMissLatency::processor.switch2.core.data    341858133                       # number of overall miss ticks (Tick)
board.cache_hierarchy.l2-cache-0.overallMissLatency::total    341917074                       # number of overall miss ticks (Tick)
board.cache_hierarchy.l2-cache-0.demandAccesses::processor.switch2.core.inst            1                       # number of demand (read+write) accesses (Count)
board.cache_hierarchy.l2-cache-0.demandAccesses::processor.switch2.core.data       399775                       # number of demand (read+write) accesses (Count)
board.cache_hierarchy.l2-cache-0.demandAccesses::total       399776                       # number of demand (read+write) accesses (Count)
board.cache_hierarchy.l2-cache-0.overallAccesses::processor.switch2.core.inst            1                       # number of overall (read+write) accesses (Count)
board.cache_hierarchy.l2-cache-0.overallAccesses::processor.switch2.core.data       399775                       # number of overall (read+write) accesses (Count)
board.cache_hierarchy.l2-cache-0.overallAccesses::total       399776                       # number of overall (read+write) accesses (Count)
board.cache_hierarchy.l2-cache-0.demandMissRate::processor.switch2.core.inst            1                       # miss rate for demand accesses (Ratio)
board.cache_hierarchy.l2-cache-0.demandMissRate::processor.switch2.core.data     0.013858                       # miss rate for demand accesses (Ratio)
board.cache_hierarchy.l2-cache-0.demandMissRate::total     0.013860                       # miss rate for demand accesses (Ratio)
board.cache_hierarchy.l2-cache-0.overallMissRate::processor.switch2.core.inst            1                       # miss rate for overall accesses (Ratio)
board.cache_hierarchy.l2-cache-0.overallMissRate::processor.switch2.core.data     0.013858                       # miss rate for overall accesses (Ratio)
board.cache_hierarchy.l2-cache-0.overallMissRate::total     0.013860                       # miss rate for overall accesses (Ratio)
board.cache_hierarchy.l2-cache-0.demandAvgMissLatency::processor.switch2.core.inst        58941                       # average overall miss latency in ticks ((Tick/Count))
board.cache_hierarchy.l2-cache-0.demandAvgMissLatency::processor.switch2.core.data 61707.244224                       # average overall miss latency in ticks ((Tick/Count))
board.cache_hierarchy.l2-cache-0.demandAvgMissLatency::total 61706.744992                       # average overall miss latency in ticks ((Tick/Count))
board.cache_hierarchy.l2-cache-0.overallAvgMissLatency::processor.switch2.core.inst        58941                       # average overall miss latency ((Tick/Count))
board.cache_hierarchy.l2-cache-0.overallAvgMissLatency::processor.switch2.core.data 61707.244224                       # average overall miss latency ((Tick/Count))
board.cache_hierarchy.l2-cache-0.overallAvgMissLatency::total 61706.744992                       # average overall miss latency ((Tick/Count))
board.cache_hierarchy.l2-cache-0.blockedCycles::no_mshrs            0                       # number of cycles access was blocked (Cycle)
board.cache_hierarchy.l2-cache-0.blockedCycles::no_targets            0                       # number of cycles access was blocked (Cycle)
board.cache_hierarchy.l2-cache-0.blockedCauses::no_mshrs            0                       # number of times access was blocked (Count)
board.cache_hierarchy.l2-cache-0.blockedCauses::no_targets            0                       # number of times access was blocked (Count)
board.cache_hierarchy.l2-cache-0.avgBlocked::no_mshrs          nan                       # average number of cycles each access was blocked ((Cycle/Count))
board.cache_hierarchy.l2-cache-0.avgBlocked::no_targets          nan                       # average number of cycles each access was blocked ((Cycle/Count))
board.cache_hierarchy.l2-cache-0.writebacks::writebacks         1951                       # number of writebacks (Count)
board.cache_hierarchy.l2-cache-0.writebacks::total         1951                       # number of writebacks (Count)
board.cache_hierarchy.l2-cache-0.demandMshrMisses::processor.switch2.core.inst            1                       # number of demand (read+write) MSHR misses (Count)
board.cache_hierarchy.l2-cache-0.demandMshrMisses::processor.switch2.core.data         5540                       # number of demand (read+write) MSHR misses (Count)
board.cache_hierarchy.l2-cache-0.demandMshrMisses::total         5541                       # number of demand (read+write) MSHR misses (Count)
board.cache_hierarchy.l2-cache-0.overallMshrMisses::cache_hierarchy.l2-cache-0.prefetcher           12                       # number of overall MSHR misses (Count)
board.cache_hierarchy.l2-cache-0.overallMshrMisses::processor.switch2.core.inst            1                       # number of overall MSHR misses (Count)
board.cache_hierarchy.l2-cache-0.overallMshrMisses::processor.switch2.core.data         5540                       # number of overall MSHR misses (Count)
board.cache_hierarchy.l2-cache-0.overallMshrMisses::total         5553                       # number of overall MSHR misses (Count)
board.cache_hierarchy.l2-cache-0.demandMshrMissLatency::processor.switch2.core.inst        57609                       # number of demand (read+write) MSHR miss ticks (Tick)
board.cache_hierarchy.l2-cache-0.demandMshrMissLatency::processor.switch2.core.data    334478853                       # number of demand (read+write) MSHR miss ticks (Tick)
board.cache_hierarchy.l2-cache-0.demandMshrMissLatency::total    334536462                       # number of demand (read+write) MSHR miss ticks (Tick)
board.cache_hierarchy.l2-cache-0.overallMshrMissLatency::cache_hierarchy.l2-cache-0.prefetcher      1946718                       # number of overall MSHR miss ticks (Tick)
board.cache_hierarchy.l2-cache-0.overallMshrMissLatency::processor.switch2.core.inst        57609                       # number of overall MSHR miss ticks (Tick)
board.cache_hierarchy.l2-cache-0.overallMshrMissLatency::processor.switch2.core.data    334478853                       # number of overall MSHR miss ticks (Tick)
board.cache_hierarchy.l2-cache-0.overallMshrMissLatency::total    336483180                       # number of overall MSHR miss ticks (Tick)
board.cache_hierarchy.l2-cache-0.demandMshrMissRate::processor.switch2.core.inst            1                       # mshr miss ratio for demand accesses (Ratio)
board.cache_hierarchy.l2-cache-0.demandMshrMissRate::processor.switch2.core.data     0.013858                       # mshr miss ratio for demand accesses (Ratio)
board.cache_hierarchy.l2-cache-0.demandMshrMissRate::total     0.013860                       # mshr miss ratio for demand accesses (Ratio)
board.cache_hierarchy.l2-cache-0.overallMshrMissRate::cache_hierarchy.l2-cache-0.prefetcher          inf                       # mshr miss ratio for overall accesses (Ratio)
board.cache_hierarchy.l2-cache-0.overallMshrMissRate::processor.switch2.core.inst            1                       # mshr miss ratio for overall accesses (Ratio)
board.cache_hierarchy.l2-cache-0.overallMshrMissRate::processor.switch2.core.data     0.013858                       # mshr miss ratio for overall accesses (Ratio)
board.cache_hierarchy.l2-cache-0.overallMshrMissRate::total     0.013890                       # mshr miss ratio for overall accesses (Ratio)
board.cache_hierarchy.l2-cache-0.demandAvgMshrMissLatency::processor.switch2.core.inst        57609                       # average overall mshr miss latency ((Tick/Count))
board.cache_hierarchy.l2-cache-0.demandAvgMshrMissLatency::processor.switch2.core.data 60375.244224                       # average overall mshr miss latency ((Tick/Count))
board.cache_hierarchy.l2-cache-0.demandAvgMshrMissLatency::total 60374.744992                       # average overall mshr miss latency ((Tick/Count))
board.cache_hierarchy.l2-cache-0.overallAvgMshrMissLatency::cache_hierarchy.l2-cache-0.prefetcher 162226.500000                       # average overall mshr miss latency ((Tick/Count))
board.cache_hierarchy.l2-cache-0.overallAvgMshrMissLatency::processor.switch2.core.inst        57609                       # average overall mshr miss latency ((Tick/Count))
board.cache_hierarchy.l2-cache-0.overallAvgMshrMissLatency::processor.switch2.core.data 60375.244224                       # average overall mshr miss latency ((Tick/Count))
board.cache_hierarchy.l2-cache-0.overallAvgMshrMissLatency::total 60594.846029                       # average overall mshr miss latency ((Tick/Count))
board.cache_hierarchy.l2-cache-0.replacements         5553                       # number of replacements (Count)
board.cache_hierarchy.l2-cache-0.HardPFReq.mshrMisses::cache_hierarchy.l2-cache-0.prefetcher           12                       # number of HardPFReq MSHR misses (Count)
board.cache_hierarchy.l2-cache-0.HardPFReq.mshrMisses::total           12                       # number of HardPFReq MSHR misses (Count)
board.cache_hierarchy.l2-cache-0.HardPFReq.mshrMissLatency::cache_hierarchy.l2-cache-0.prefetcher      1946718                       # number of HardPFReq MSHR miss ticks (Tick)
board.cache_hierarchy.l2-cache-0.HardPFReq.mshrMissLatency::total      1946718                       # number of HardPFReq MSHR miss ticks (Tick)
board.cache_hierarchy.l2-cache-0.HardPFReq.mshrMissRate::cache_hierarchy.l2-cache-0.prefetcher          inf                       # mshr miss rate for HardPFReq accesses (Ratio)
board.cache_hierarchy.l2-cache-0.HardPFReq.mshrMissRate::total          inf                       # mshr miss rate for HardPFReq accesses (Ratio)
board.cache_hierarchy.l2-cache-0.HardPFReq.avgMshrMissLatency::cache_hierarchy.l2-cache-0.prefetcher 162226.500000                       # average HardPFReq mshr miss latency ((Tick/Count))
board.cache_hierarchy.l2-cache-0.HardPFReq.avgMshrMissLatency::total 162226.500000                       # average HardPFReq mshr miss latency ((Tick/Count))
board.cache_hierarchy.l2-cache-0.ReadExReq.hits::processor.switch2.core.data        12138                       # number of ReadExReq hits (Count)
board.cache_hierarchy.l2-cache-0.ReadExReq.hits::total        12138                       # number of ReadExReq hits (Count)
board.cache_hierarchy.l2-cache-0.ReadExReq.misses::processor.switch2.core.data           21                       # number of ReadExReq misses (Count)
board.cache_hierarchy.l2-cache-0.ReadExReq.misses::total           21                       # number of ReadExReq misses (Count)
board.cache_hierarchy.l2-cache-0.ReadExReq.missLatency::processor.switch2.core.data      1142190                       # number of ReadExReq miss ticks (Tick)
board.cache_hierarchy.l2-cache-0.ReadExReq.missLatency::total      1142190                       # number of ReadExReq miss ticks (Tick)
board.cache_hierarchy.l2-cache-0.ReadExReq.accesses::processor.switch2.core.data        12159                       # number of ReadExReq accesses(hits+misses) (Count)
board.cache_hierarchy.l2-cache-0.ReadExReq.accesses::total        12159                       # number of ReadExReq accesses(hits+misses) (Count)
board.cache_hierarchy.l2-cache-0.ReadExReq.missRate::processor.switch2.core.data     0.001727                       # miss rate for ReadExReq accesses (Ratio)
board.cache_hierarchy.l2-cache-0.ReadExReq.missRate::total     0.001727                       # miss rate for ReadExReq accesses (Ratio)
board.cache_hierarchy.l2-cache-0.ReadExReq.avgMissLatency::processor.switch2.core.data        54390                       # average ReadExReq miss latency ((Tick/Count))
board.cache_hierarchy.l2-cache-0.ReadExReq.avgMissLatency::total        54390                       # average ReadExReq miss latency ((Tick/Count))
board.cache_hierarchy.l2-cache-0.ReadExReq.mshrMisses::processor.switch2.core.data           21                       # number of ReadExReq MSHR misses (Count)
board.cache_hierarchy.l2-cache-0.ReadExReq.mshrMisses::total           21                       # number of ReadExReq MSHR misses (Count)
board.cache_hierarchy.l2-cache-0.ReadExReq.mshrMissLatency::processor.switch2.core.data      1114218                       # number of ReadExReq MSHR miss ticks (Tick)
board.cache_hierarchy.l2-cache-0.ReadExReq.mshrMissLatency::total      1114218                       # number of ReadExReq MSHR miss ticks (Tick)
board.cache_hierarchy.l2-cache-0.ReadExReq.mshrMissRate::processor.switch2.core.data     0.001727                       # mshr miss rate for ReadExReq accesses (Ratio)
board.cache_hierarchy.l2-cache-0.ReadExReq.mshrMissRate::total     0.001727                       # mshr miss rate for ReadExReq accesses (Ratio)
board.cache_hierarchy.l2-cache-0.ReadExReq.avgMshrMissLatency::processor.switch2.core.data        53058                       # average ReadExReq mshr miss latency ((Tick/Count))
board.cache_hierarchy.l2-cache-0.ReadExReq.avgMshrMissLatency::total        53058                       # average ReadExReq mshr miss latency ((Tick/Count))
board.cache_hierarchy.l2-cache-0.ReadSharedReq.hits::processor.switch2.core.data       382097                       # number of ReadSharedReq hits (Count)
board.cache_hierarchy.l2-cache-0.ReadSharedReq.hits::total       382097                       # number of ReadSharedReq hits (Count)
board.cache_hierarchy.l2-cache-0.ReadSharedReq.misses::processor.switch2.core.inst            1                       # number of ReadSharedReq misses (Count)
board.cache_hierarchy.l2-cache-0.ReadSharedReq.misses::processor.switch2.core.data         5519                       # number of ReadSharedReq misses (Count)
board.cache_hierarchy.l2-cache-0.ReadSharedReq.misses::total         5520                       # number of ReadSharedReq misses (Count)
board.cache_hierarchy.l2-cache-0.ReadSharedReq.missLatency::processor.switch2.core.inst        58941                       # number of ReadSharedReq miss ticks (Tick)
board.cache_hierarchy.l2-cache-0.ReadSharedReq.missLatency::processor.switch2.core.data    340715943                       # number of ReadSharedReq miss ticks (Tick)
board.cache_hierarchy.l2-cache-0.ReadSharedReq.missLatency::total    340774884                       # number of ReadSharedReq miss ticks (Tick)
board.cache_hierarchy.l2-cache-0.ReadSharedReq.accesses::processor.switch2.core.inst            1                       # number of ReadSharedReq accesses(hits+misses) (Count)
board.cache_hierarchy.l2-cache-0.ReadSharedReq.accesses::processor.switch2.core.data       387616                       # number of ReadSharedReq accesses(hits+misses) (Count)
board.cache_hierarchy.l2-cache-0.ReadSharedReq.accesses::total       387617                       # number of ReadSharedReq accesses(hits+misses) (Count)
board.cache_hierarchy.l2-cache-0.ReadSharedReq.missRate::processor.switch2.core.inst            1                       # miss rate for ReadSharedReq accesses (Ratio)
board.cache_hierarchy.l2-cache-0.ReadSharedReq.missRate::processor.switch2.core.data     0.014238                       # miss rate for ReadSharedReq accesses (Ratio)
board.cache_hierarchy.l2-cache-0.ReadSharedReq.missRate::total     0.014241                       # miss rate for ReadSharedReq accesses (Ratio)
board.cache_hierarchy.l2-cache-0.ReadSharedReq.avgMissLatency::processor.switch2.core.inst        58941                       # average ReadSharedReq miss latency ((Tick/Count))
board.cache_hierarchy.l2-cache-0.ReadSharedReq.avgMissLatency::processor.switch2.core.data 61735.086610                       # average ReadSharedReq miss latency ((Tick/Count))
board.cache_hierarchy.l2-cache-0.ReadSharedReq.avgMissLatency::total 61734.580435                       # average ReadSharedReq miss latency ((Tick/Count))
board.cache_hierarchy.l2-cache-0.ReadSharedReq.mshrMisses::processor.switch2.core.inst            1                       # number of ReadSharedReq MSHR misses (Count)
board.cache_hierarchy.l2-cache-0.ReadSharedReq.mshrMisses::processor.switch2.core.data         5519                       # number of ReadSharedReq MSHR misses (Count)
board.cache_hierarchy.l2-cache-0.ReadSharedReq.mshrMisses::total         5520                       # number of ReadSharedReq MSHR misses (Count)
board.cache_hierarchy.l2-cache-0.ReadSharedReq.mshrMissLatency::processor.switch2.core.inst        57609                       # number of ReadSharedReq MSHR miss ticks (Tick)
board.cache_hierarchy.l2-cache-0.ReadSharedReq.mshrMissLatency::processor.switch2.core.data    333364635                       # number of ReadSharedReq MSHR miss ticks (Tick)
board.cache_hierarchy.l2-cache-0.ReadSharedReq.mshrMissLatency::total    333422244                       # number of ReadSharedReq MSHR miss ticks (Tick)
board.cache_hierarchy.l2-cache-0.ReadSharedReq.mshrMissRate::processor.switch2.core.inst            1                       # mshr miss rate for ReadSharedReq accesses (Ratio)
board.cache_hierarchy.l2-cache-0.ReadSharedReq.mshrMissRate::processor.switch2.core.data     0.014238                       # mshr miss rate for ReadSharedReq accesses (Ratio)
board.cache_hierarchy.l2-cache-0.ReadSharedReq.mshrMissRate::total     0.014241                       # mshr miss rate for ReadSharedReq accesses (Ratio)
board.cache_hierarchy.l2-cache-0.ReadSharedReq.avgMshrMissLatency::processor.switch2.core.inst        57609                       # average ReadSharedReq mshr miss latency ((Tick/Count))
board.cache_hierarchy.l2-cache-0.ReadSharedReq.avgMshrMissLatency::processor.switch2.core.data 60403.086610                       # average ReadSharedReq mshr miss latency ((Tick/Count))
board.cache_hierarchy.l2-cache-0.ReadSharedReq.avgMshrMissLatency::total 60402.580435                       # average ReadSharedReq mshr miss latency ((Tick/Count))
board.cache_hierarchy.l2-cache-0.WritebackDirty.hits::writebacks       106470                       # number of WritebackDirty hits (Count)
board.cache_hierarchy.l2-cache-0.WritebackDirty.hits::total       106470                       # number of WritebackDirty hits (Count)
board.cache_hierarchy.l2-cache-0.WritebackDirty.accesses::writebacks       106470                       # number of WritebackDirty accesses(hits+misses) (Count)
board.cache_hierarchy.l2-cache-0.WritebackDirty.accesses::total       106470                       # number of WritebackDirty accesses(hits+misses) (Count)
board.cache_hierarchy.l2-cache-0.power_state.pwrStateResidencyTicks::UNDEFINED 227209126493611                       # Cumulative time (in ticks) in various power states (Tick)
board.cache_hierarchy.l2-cache-0.prefetcher.demandMshrMisses         5541                       # demands not covered by prefetchs (Count)
board.cache_hierarchy.l2-cache-0.prefetcher.pfIssued           12                       # number of hwpf issued (Count)
board.cache_hierarchy.l2-cache-0.prefetcher.pfUnused            3                       # number of HardPF blocks evicted w/o reference (Count)
board.cache_hierarchy.l2-cache-0.prefetcher.pfUseful            3                       # number of useful prefetch (Count)
board.cache_hierarchy.l2-cache-0.prefetcher.pfUsefulButMiss            0                       # number of hit on prefetch but cache block is not in an usable state (Count)
board.cache_hierarchy.l2-cache-0.prefetcher.accuracy     0.250000                       # accuracy of the prefetcher (Count)
board.cache_hierarchy.l2-cache-0.prefetcher.coverage     0.000541                       # coverage brought by this prefetcher (Count)
board.cache_hierarchy.l2-cache-0.prefetcher.pfHitInCache            0                       # number of prefetches hitting in cache (Count)
board.cache_hierarchy.l2-cache-0.prefetcher.pfHitInMSHR            0                       # number of prefetches hitting in a MSHR (Count)
board.cache_hierarchy.l2-cache-0.prefetcher.pfHitInWB            0                       # number of prefetches hit in the Write Buffer (Count)
board.cache_hierarchy.l2-cache-0.prefetcher.pfLate            0                       # number of late prefetches (hitting in cache, MSHR or WB) (Count)
board.cache_hierarchy.l2-cache-0.prefetcher.pfIdentified           12                       # number of prefetch candidates identified (Count)
board.cache_hierarchy.l2-cache-0.prefetcher.pfBufferHit            0                       # number of redundant prefetches already in prefetch queue (Count)
board.cache_hierarchy.l2-cache-0.prefetcher.pfInCache            0                       # number of redundant prefetches already in cache/mshr dropped (Count)
board.cache_hierarchy.l2-cache-0.prefetcher.pfRemovedDemand            0                       # number of prefetches dropped due to a demand for the same address (Count)
board.cache_hierarchy.l2-cache-0.prefetcher.pfRemovedFull            0                       # number of prefetches dropped due to prefetch queue size (Count)
board.cache_hierarchy.l2-cache-0.prefetcher.pfSpanPage           34                       # number of prefetches that crossed the page (Count)
board.cache_hierarchy.l2-cache-0.prefetcher.pfUsefulSpanPage            0                       # number of prefetches that is useful and crossed the page (Count)
board.cache_hierarchy.l2-cache-0.prefetcher.power_state.pwrStateResidencyTicks::UNDEFINED 227209126493611                       # Cumulative time (in ticks) in various power states (Tick)
board.cache_hierarchy.l2-cache-0.tags.tagsInUse         8192                       # Average ticks per tags in use ((Tick/Count))
board.cache_hierarchy.l2-cache-0.tags.totalRefs      2283859                       # Total number of references to valid blocks. (Count)
board.cache_hierarchy.l2-cache-0.tags.sampledRefs        13745                       # Sample count of references to valid blocks. (Count)
board.cache_hierarchy.l2-cache-0.tags.avgRefs   166.159258                       # Average number of references to valid blocks. ((Count/Count))
board.cache_hierarchy.l2-cache-0.tags.warmupTick            0                       # The tick when the warmup percentage was hit. (Tick)
board.cache_hierarchy.l2-cache-0.tags.occupancies::cache_hierarchy.l2-cache-0.prefetcher    45.843052                       # Average occupied blocks per tick, per requestor ((Count/Tick))
board.cache_hierarchy.l2-cache-0.tags.occupancies::processor.switch1.core.data  5552.030353                       # Average occupied blocks per tick, per requestor ((Count/Tick))
board.cache_hierarchy.l2-cache-0.tags.occupancies::processor.switch2.core.inst     0.605172                       # Average occupied blocks per tick, per requestor ((Count/Tick))
board.cache_hierarchy.l2-cache-0.tags.occupancies::processor.switch2.core.data  2593.521423                       # Average occupied blocks per tick, per requestor ((Count/Tick))
board.cache_hierarchy.l2-cache-0.tags.avgOccs::cache_hierarchy.l2-cache-0.prefetcher     0.005596                       # Average percentage of cache occupancy ((Ratio/Tick))
board.cache_hierarchy.l2-cache-0.tags.avgOccs::processor.switch1.core.data     0.677738                       # Average percentage of cache occupancy ((Ratio/Tick))
board.cache_hierarchy.l2-cache-0.tags.avgOccs::processor.switch2.core.inst     0.000074                       # Average percentage of cache occupancy ((Ratio/Tick))
board.cache_hierarchy.l2-cache-0.tags.avgOccs::processor.switch2.core.data     0.316592                       # Average percentage of cache occupancy ((Ratio/Tick))
board.cache_hierarchy.l2-cache-0.tags.avgOccs::total            1                       # Average percentage of cache occupancy ((Ratio/Tick))
board.cache_hierarchy.l2-cache-0.tags.occupanciesTaskId::1022           35                       # Occupied blocks per task id (Count)
board.cache_hierarchy.l2-cache-0.tags.occupanciesTaskId::1024         8157                       # Occupied blocks per task id (Count)
board.cache_hierarchy.l2-cache-0.tags.ageTaskId_1022::3           12                       # Occupied blocks per task id, per block age (Count)
board.cache_hierarchy.l2-cache-0.tags.ageTaskId_1022::4           23                       # Occupied blocks per task id, per block age (Count)
board.cache_hierarchy.l2-cache-0.tags.ageTaskId_1024::2          376                       # Occupied blocks per task id, per block age (Count)
board.cache_hierarchy.l2-cache-0.tags.ageTaskId_1024::3         3356                       # Occupied blocks per task id, per block age (Count)
board.cache_hierarchy.l2-cache-0.tags.ageTaskId_1024::4         4425                       # Occupied blocks per task id, per block age (Count)
board.cache_hierarchy.l2-cache-0.tags.ratioOccsTaskId::1022     0.004272                       # Ratio of occupied blocks and all blocks, per task id (Ratio)
board.cache_hierarchy.l2-cache-0.tags.ratioOccsTaskId::1024     0.995728                       # Ratio of occupied blocks and all blocks, per task id (Ratio)
board.cache_hierarchy.l2-cache-0.tags.tagAccesses      6401961                       # Number of tag accesses (Count)
board.cache_hierarchy.l2-cache-0.tags.dataAccesses      6401961                       # Number of data accesses (Count)
board.cache_hierarchy.l2-cache-0.tags.power_state.pwrStateResidencyTicks::UNDEFINED 227209126493611                       # Cumulative time (in ticks) in various power states (Tick)
board.cache_hierarchy.l2buses.transDist::ReadResp       387617                       # Transaction distribution (Count)
board.cache_hierarchy.l2buses.transDist::WritebackDirty       108421                       # Transaction distribution (Count)
board.cache_hierarchy.l2buses.transDist::CleanEvict       296907                       # Transaction distribution (Count)
board.cache_hierarchy.l2buses.transDist::HardPFReq           12                       # Transaction distribution (Count)
board.cache_hierarchy.l2buses.transDist::ReadExReq        12159                       # Transaction distribution (Count)
board.cache_hierarchy.l2buses.transDist::ReadExResp        12159                       # Transaction distribution (Count)
board.cache_hierarchy.l2buses.transDist::ReadSharedReq       387617                       # Transaction distribution (Count)
board.cache_hierarchy.l2buses.pktCount_board.cache_hierarchy.l1i-cache-0.mem_side_port::board.cache_hierarchy.l2-cache-0.cpu_side_port            2                       # Packet count per connected requestor and responder (Count)
board.cache_hierarchy.l2buses.pktCount_board.cache_hierarchy.l1d-cache-0.mem_side_port::board.cache_hierarchy.l2-cache-0.cpu_side_port      1199325                       # Packet count per connected requestor and responder (Count)
board.cache_hierarchy.l2buses.pktCount::total      1199327                       # Packet count per connected requestor and responder (Count)
board.cache_hierarchy.l2buses.pktSize_board.cache_hierarchy.l1i-cache-0.mem_side_port::board.cache_hierarchy.l2-cache-0.cpu_side_port           64                       # Cumulative packet size per connected requestor and responder (Byte)
board.cache_hierarchy.l2buses.pktSize_board.cache_hierarchy.l1d-cache-0.mem_side_port::board.cache_hierarchy.l2-cache-0.cpu_side_port     32399680                       # Cumulative packet size per connected requestor and responder (Byte)
board.cache_hierarchy.l2buses.pktSize::total     32399744                       # Cumulative packet size per connected requestor and responder (Byte)
board.cache_hierarchy.l2buses.snoops             5565                       # Total snoops (Count)
board.cache_hierarchy.l2buses.snoopTraffic       124864                       # Total snoop traffic (Byte)
board.cache_hierarchy.l2buses.snoopFanout::samples       405341                       # Request fanout histogram (Count)
board.cache_hierarchy.l2buses.snoopFanout::mean            0                       # Request fanout histogram (Count)
board.cache_hierarchy.l2buses.snoopFanout::stdev            0                       # Request fanout histogram (Count)
board.cache_hierarchy.l2buses.snoopFanout::underflows            0      0.00%      0.00% # Request fanout histogram (Count)
board.cache_hierarchy.l2buses.snoopFanout::0       405341    100.00%    100.00% # Request fanout histogram (Count)
board.cache_hierarchy.l2buses.snoopFanout::1            0      0.00%    100.00% # Request fanout histogram (Count)
board.cache_hierarchy.l2buses.snoopFanout::2            0      0.00%    100.00% # Request fanout histogram (Count)
board.cache_hierarchy.l2buses.snoopFanout::overflows            0      0.00%    100.00% # Request fanout histogram (Count)
board.cache_hierarchy.l2buses.snoopFanout::min_value            0                       # Request fanout histogram (Count)
board.cache_hierarchy.l2buses.snoopFanout::max_value            0                       # Request fanout histogram (Count)
board.cache_hierarchy.l2buses.snoopFanout::total       405341                       # Request fanout histogram (Count)
board.cache_hierarchy.l2buses.power_state.pwrStateResidencyTicks::UNDEFINED 227209126493611                       # Cumulative time (in ticks) in various power states (Tick)
board.cache_hierarchy.l2buses.reqLayer0.occupancy    337159503                       # Layer occupancy (ticks) (Tick)
board.cache_hierarchy.l2buses.reqLayer0.utilization          0.0                       # Layer utilization (Ratio)
board.cache_hierarchy.l2buses.respLayer0.occupancy          999                       # Layer occupancy (ticks) (Tick)
board.cache_hierarchy.l2buses.respLayer0.utilization          0.0                       # Layer utilization (Ratio)
board.cache_hierarchy.l2buses.respLayer1.occupancy    399375225                       # Layer occupancy (ticks) (Tick)
board.cache_hierarchy.l2buses.respLayer1.utilization          0.0                       # Layer utilization (Ratio)
board.cache_hierarchy.l2buses.snoop_filter.totRequests       799551                       # Total number of requests made to the snoop filter. (Count)
board.cache_hierarchy.l2buses.snoop_filter.hitSingleRequests       399775                       # Number of requests hitting in the snoop filter with a single holder of the requested data. (Count)
board.cache_hierarchy.l2buses.snoop_filter.hitMultiRequests            0                       # Number of requests hitting in the snoop filter with multiple (>1) holders of the requested data. (Count)
board.cache_hierarchy.l2buses.snoop_filter.totSnoops            0                       # Total number of snoops made to the snoop filter. (Count)
board.cache_hierarchy.l2buses.snoop_filter.hitSingleSnoops            0                       # Number of snoops hitting in the snoop filter with a single holder of the requested data. (Count)
board.cache_hierarchy.l2buses.snoop_filter.hitMultiSnoops            0                       # Number of snoops hitting in the snoop filter with multiple (>1) holders of the requested data. (Count)
board.cache_hierarchy.membus.transDist::ReadResp         5532                       # Transaction distribution (Count)
board.cache_hierarchy.membus.transDist::WritebackDirty         1951                       # Transaction distribution (Count)
board.cache_hierarchy.membus.transDist::CleanEvict         3602                       # Transaction distribution (Count)
board.cache_hierarchy.membus.transDist::ReadExReq           21                       # Transaction distribution (Count)
board.cache_hierarchy.membus.transDist::ReadExResp           21                       # Transaction distribution (Count)
board.cache_hierarchy.membus.transDist::ReadSharedReq         5532                       # Transaction distribution (Count)
board.cache_hierarchy.membus.pktCount_board.cache_hierarchy.l2-cache-0.mem_side_port::board.memory.mem_ctrl.port        16659                       # Packet count per connected requestor and responder (Count)
board.cache_hierarchy.membus.pktCount_board.cache_hierarchy.l2-cache-0.mem_side_port::total        16659                       # Packet count per connected requestor and responder (Count)
board.cache_hierarchy.membus.pktCount::total        16659                       # Packet count per connected requestor and responder (Count)
board.cache_hierarchy.membus.pktSize_board.cache_hierarchy.l2-cache-0.mem_side_port::board.memory.mem_ctrl.port       480256                       # Cumulative packet size per connected requestor and responder (Byte)
board.cache_hierarchy.membus.pktSize_board.cache_hierarchy.l2-cache-0.mem_side_port::total       480256                       # Cumulative packet size per connected requestor and responder (Byte)
board.cache_hierarchy.membus.pktSize::total       480256                       # Cumulative packet size per connected requestor and responder (Byte)
board.cache_hierarchy.membus.snoops                 0                       # Total snoops (Count)
board.cache_hierarchy.membus.snoopTraffic            0                       # Total snoop traffic (Byte)
board.cache_hierarchy.membus.snoopFanout::samples         5553                       # Request fanout histogram (Count)
board.cache_hierarchy.membus.snoopFanout::mean            0                       # Request fanout histogram (Count)
board.cache_hierarchy.membus.snoopFanout::stdev            0                       # Request fanout histogram (Count)
board.cache_hierarchy.membus.snoopFanout::underflows            0      0.00%      0.00% # Request fanout histogram (Count)
board.cache_hierarchy.membus.snoopFanout::0         5553    100.00%    100.00% # Request fanout histogram (Count)
board.cache_hierarchy.membus.snoopFanout::1            0      0.00%    100.00% # Request fanout histogram (Count)
board.cache_hierarchy.membus.snoopFanout::overflows            0      0.00%    100.00% # Request fanout histogram (Count)
board.cache_hierarchy.membus.snoopFanout::min_value            0                       # Request fanout histogram (Count)
board.cache_hierarchy.membus.snoopFanout::max_value            0                       # Request fanout histogram (Count)
board.cache_hierarchy.membus.snoopFanout::total         5553                       # Request fanout histogram (Count)
board.cache_hierarchy.membus.badaddr_responder.power_state.pwrStateResidencyTicks::UNDEFINED 227209126493611                       # Cumulative time (in ticks) in various power states (Tick)
board.cache_hierarchy.membus.power_state.pwrStateResidencyTicks::UNDEFINED 227209126493611                       # Cumulative time (in ticks) in various power states (Tick)
board.cache_hierarchy.membus.reqLayer0.occupancy      4347981                       # Layer occupancy (ticks) (Tick)
board.cache_hierarchy.membus.reqLayer0.utilization          0.0                       # Layer utilization (Ratio)
board.cache_hierarchy.membus.respLayer1.occupancy      4657542                       # Layer occupancy (ticks) (Tick)
board.cache_hierarchy.membus.respLayer1.utilization          0.0                       # Layer utilization (Ratio)
board.cache_hierarchy.membus.snoop_filter.totRequests        11106                       # Total number of requests made to the snoop filter. (Count)
board.cache_hierarchy.membus.snoop_filter.hitSingleRequests         5553                       # Number of requests hitting in the snoop filter with a single holder of the requested data. (Count)
board.cache_hierarchy.membus.snoop_filter.hitMultiRequests            0                       # Number of requests hitting in the snoop filter with multiple (>1) holders of the requested data. (Count)
board.cache_hierarchy.membus.snoop_filter.totSnoops            0                       # Total number of snoops made to the snoop filter. (Count)
board.cache_hierarchy.membus.snoop_filter.hitSingleSnoops            0                       # Number of snoops hitting in the snoop filter with a single holder of the requested data. (Count)
board.cache_hierarchy.membus.snoop_filter.hitMultiSnoops            0                       # Number of snoops hitting in the snoop filter with multiple (>1) holders of the requested data. (Count)
board.clk_domain.clock                            333                       # Clock period in ticks (Tick)
board.clk_domain.voltage_domain.voltage             1                       # Voltage in Volts (Volt)
board.memory.mem_ctrl.avgPriority_writebacks::samples      1951.00                       # Average QoS priority value for accepted requests (Count)
board.memory.mem_ctrl.avgPriority_cache_hierarchy.l2-cache-0.prefetcher::samples        12.00                       # Average QoS priority value for accepted requests (Count)
board.memory.mem_ctrl.avgPriority_processor.switch2.core.inst::samples         1.00                       # Average QoS priority value for accepted requests (Count)
board.memory.mem_ctrl.avgPriority_processor.switch2.core.data::samples      5537.00                       # Average QoS priority value for accepted requests (Count)
board.memory.mem_ctrl.priorityMinLatency 0.000000018750                       # per QoS priority minimum request to response latency (Second)
board.memory.mem_ctrl.priorityMaxLatency 0.006080786602                       # per QoS priority maximum request to response latency (Second)
board.memory.mem_ctrl.numReadWriteTurnArounds          116                       # Number of turnarounds from READ to WRITE (Count)
board.memory.mem_ctrl.numWriteReadTurnArounds          116                       # Number of turnarounds from WRITE to READ (Count)
board.memory.mem_ctrl.numStayReadState          16110                       # Number of times bus staying in READ state (Count)
board.memory.mem_ctrl.numStayWriteState          1808                       # Number of times bus staying in WRITE state (Count)
board.memory.mem_ctrl.readReqs                   5553                       # Number of read requests accepted (Count)
board.memory.mem_ctrl.writeReqs                  1951                       # Number of write requests accepted (Count)
board.memory.mem_ctrl.readBursts                 5553                       # Number of controller read bursts, including those serviced by the write queue (Count)
board.memory.mem_ctrl.writeBursts                1951                       # Number of controller write bursts, including those merged in the write queue (Count)
board.memory.mem_ctrl.servicedByWrQ                 3                       # Number of controller read bursts serviced by the write queue (Count)
board.memory.mem_ctrl.mergedWrBursts                0                       # Number of controller write bursts merged with an existing one (Count)
board.memory.mem_ctrl.neitherReadNorWriteReqs            0                       # Number of requests that are neither read nor write (Count)
board.memory.mem_ctrl.avgRdQLen                  1.23                       # Average read queue length when enqueuing ((Count/Tick))
board.memory.mem_ctrl.avgWrQLen                 23.91                       # Average write queue length when enqueuing ((Count/Tick))
board.memory.mem_ctrl.numRdRetry                    0                       # Number of times read queue was full causing retry (Count)
board.memory.mem_ctrl.numWrRetry                    0                       # Number of times write queue was full causing retry (Count)
board.memory.mem_ctrl.readPktSize::0                0                       # Read request sizes (log2) (Count)
board.memory.mem_ctrl.readPktSize::1                0                       # Read request sizes (log2) (Count)
board.memory.mem_ctrl.readPktSize::2                0                       # Read request sizes (log2) (Count)
board.memory.mem_ctrl.readPktSize::3                0                       # Read request sizes (log2) (Count)
board.memory.mem_ctrl.readPktSize::4                0                       # Read request sizes (log2) (Count)
board.memory.mem_ctrl.readPktSize::5                0                       # Read request sizes (log2) (Count)
board.memory.mem_ctrl.readPktSize::6             5553                       # Read request sizes (log2) (Count)
board.memory.mem_ctrl.writePktSize::0               0                       # Write request sizes (log2) (Count)
board.memory.mem_ctrl.writePktSize::1               0                       # Write request sizes (log2) (Count)
board.memory.mem_ctrl.writePktSize::2               0                       # Write request sizes (log2) (Count)
board.memory.mem_ctrl.writePktSize::3               0                       # Write request sizes (log2) (Count)
board.memory.mem_ctrl.writePktSize::4               0                       # Write request sizes (log2) (Count)
board.memory.mem_ctrl.writePktSize::5               0                       # Write request sizes (log2) (Count)
board.memory.mem_ctrl.writePktSize::6            1951                       # Write request sizes (log2) (Count)
board.memory.mem_ctrl.rdQLenPdf::0               2748                       # What read queue length does an incoming req see (Count)
board.memory.mem_ctrl.rdQLenPdf::1               1162                       # What read queue length does an incoming req see (Count)
board.memory.mem_ctrl.rdQLenPdf::2                483                       # What read queue length does an incoming req see (Count)
board.memory.mem_ctrl.rdQLenPdf::3                788                       # What read queue length does an incoming req see (Count)
board.memory.mem_ctrl.rdQLenPdf::4                249                       # What read queue length does an incoming req see (Count)
board.memory.mem_ctrl.rdQLenPdf::5                 91                       # What read queue length does an incoming req see (Count)
board.memory.mem_ctrl.rdQLenPdf::6                 18                       # What read queue length does an incoming req see (Count)
board.memory.mem_ctrl.rdQLenPdf::7                  2                       # What read queue length does an incoming req see (Count)
board.memory.mem_ctrl.rdQLenPdf::8                  4                       # What read queue length does an incoming req see (Count)
board.memory.mem_ctrl.rdQLenPdf::9                  2                       # What read queue length does an incoming req see (Count)
board.memory.mem_ctrl.rdQLenPdf::10                 2                       # What read queue length does an incoming req see (Count)
board.memory.mem_ctrl.rdQLenPdf::11                 1                       # What read queue length does an incoming req see (Count)
board.memory.mem_ctrl.rdQLenPdf::12                 0                       # What read queue length does an incoming req see (Count)
board.memory.mem_ctrl.rdQLenPdf::13                 0                       # What read queue length does an incoming req see (Count)
board.memory.mem_ctrl.rdQLenPdf::14                 0                       # What read queue length does an incoming req see (Count)
board.memory.mem_ctrl.rdQLenPdf::15                 0                       # What read queue length does an incoming req see (Count)
board.memory.mem_ctrl.rdQLenPdf::16                 0                       # What read queue length does an incoming req see (Count)
board.memory.mem_ctrl.rdQLenPdf::17                 0                       # What read queue length does an incoming req see (Count)
board.memory.mem_ctrl.rdQLenPdf::18                 0                       # What read queue length does an incoming req see (Count)
board.memory.mem_ctrl.rdQLenPdf::19                 0                       # What read queue length does an incoming req see (Count)
board.memory.mem_ctrl.rdQLenPdf::20                 0                       # What read queue length does an incoming req see (Count)
board.memory.mem_ctrl.rdQLenPdf::21                 0                       # What read queue length does an incoming req see (Count)
board.memory.mem_ctrl.rdQLenPdf::22                 0                       # What read queue length does an incoming req see (Count)
board.memory.mem_ctrl.rdQLenPdf::23                 0                       # What read queue length does an incoming req see (Count)
board.memory.mem_ctrl.rdQLenPdf::24                 0                       # What read queue length does an incoming req see (Count)
board.memory.mem_ctrl.rdQLenPdf::25                 0                       # What read queue length does an incoming req see (Count)
board.memory.mem_ctrl.rdQLenPdf::26                 0                       # What read queue length does an incoming req see (Count)
board.memory.mem_ctrl.rdQLenPdf::27                 0                       # What read queue length does an incoming req see (Count)
board.memory.mem_ctrl.rdQLenPdf::28                 0                       # What read queue length does an incoming req see (Count)
board.memory.mem_ctrl.rdQLenPdf::29                 0                       # What read queue length does an incoming req see (Count)
board.memory.mem_ctrl.rdQLenPdf::30                 0                       # What read queue length does an incoming req see (Count)
board.memory.mem_ctrl.rdQLenPdf::31                 0                       # What read queue length does an incoming req see (Count)
board.memory.mem_ctrl.wrQLenPdf::0                  1                       # What write queue length does an incoming req see (Count)
board.memory.mem_ctrl.wrQLenPdf::1                  1                       # What write queue length does an incoming req see (Count)
board.memory.mem_ctrl.wrQLenPdf::2                  1                       # What write queue length does an incoming req see (Count)
board.memory.mem_ctrl.wrQLenPdf::3                  1                       # What write queue length does an incoming req see (Count)
board.memory.mem_ctrl.wrQLenPdf::4                  1                       # What write queue length does an incoming req see (Count)
board.memory.mem_ctrl.wrQLenPdf::5                  1                       # What write queue length does an incoming req see (Count)
board.memory.mem_ctrl.wrQLenPdf::6                  1                       # What write queue length does an incoming req see (Count)
board.memory.mem_ctrl.wrQLenPdf::7                  1                       # What write queue length does an incoming req see (Count)
[...]
board.processor.switch2.core.executeStats0.numMiscRegReads     22231096                       # Number of times the Misc registers were read (Count)
board.processor.switch2.core.executeStats0.numVecAluAccesses            0                       # Number of vector alu accesses (Count)
board.processor.switch2.core.executeStats0.numDiscardedOps            0                       # Number of ops (including micro ops) which were discarded before commit (Count)
board.processor.switch2.core.fetch.predictedBranches      1930526                       # Number of branches that fetch has predicted taken (Count)
board.processor.switch2.core.fetch.cycles     43004246                       # Number of cycles fetch has run and was not squashing or blocked (Cycle)
board.processor.switch2.core.fetch.squashCycles       134514                       # Number of cycles fetch has spent squashing (Cycle)
board.processor.switch2.core.fetch.cacheLines      5019452                       # Number of cache lines fetched (Count)
board.processor.switch2.core.fetch.icacheSquashes            1                       # Number of outstanding Icache misses that were squashed (Count)
board.processor.switch2.core.fetch.nisnDist::samples     43129846                       # Number of instructions fetched each cycle (Total) (Count)
board.processor.switch2.core.fetch.nisnDist::mean     1.842225                       # Number of instructions fetched each cycle (Total) (Count)
board.processor.switch2.core.fetch.nisnDist::stdev     0.471698                       # Number of instructions fetched each cycle (Total) (Count)
board.processor.switch2.core.fetch.nisnDist::underflows            0      0.00%      0.00% # Number of instructions fetched each cycle (Total) (Count)
board.processor.switch2.core.fetch.nisnDist::0      1932576      4.48%      4.48% # Number of instructions fetched each cycle (Total) (Count)
board.processor.switch2.core.fetch.nisnDist::1      2939662      6.82%     11.30% # Number of instructions fetched each cycle (Total) (Count)
board.processor.switch2.core.fetch.nisnDist::2     38257608     88.70%    100.00% # Number of instructions fetched each cycle (Total) (Count)
board.processor.switch2.core.fetch.nisnDist::overflows            0      0.00%    100.00% # Number of instructions fetched each cycle (Total) (Count)
board.processor.switch2.core.fetch.nisnDist::min_value            0                       # Number of instructions fetched each cycle (Total) (Count)
board.processor.switch2.core.fetch.nisnDist::max_value            2                       # Number of instructions fetched each cycle (Total) (Count)
board.processor.switch2.core.fetch.nisnDist::total     43129846                       # Number of instructions fetched each cycle (Total) (Count)
board.processor.switch2.core.fetchStats0.numInsts     54368848                       # Number of instructions fetched (thread level) (Count)
board.processor.switch2.core.fetchStats0.numOps            0                       # Number of ops (including micro ops) fetched (thread level) (Count)
board.processor.switch2.core.fetchStats0.fetchRate     1.260585                       # Number of inst fetches per cycle ((Count/Cycle))
board.processor.switch2.core.fetchStats0.numBranches      2515061                       # Number of branches fetched (Count)
board.processor.switch2.core.fetchStats0.branchRate     0.058314                       # Number of branch fetches per cycle (Ratio)
board.processor.switch2.core.fetchStats0.icacheStallCycles        58343                       # ICache total stall cycles (Cycle)
board.processor.switch2.core.fetchStats0.numFetchSuspends            0                       # Number of times Execute suspended instruction fetching (Count)
board.processor.switch2.core.iew.idleCycles            0                       # Number of cycles IEW is idle (Cycle)
board.processor.switch2.core.iew.squashCycles        67240                       # Number of cycles IEW is squashing (Cycle)
board.processor.switch2.core.iew.blockCycles       105122                       # Number of cycles IEW is blocking (Cycle)
board.processor.switch2.core.iew.unblockCycles        36991                       # Number of cycles IEW is unblocking (Cycle)
board.processor.switch2.core.iew.dispatchedInsts     78883036                       # Number of instructions dispatched to IQ (Count)
board.processor.switch2.core.iew.dispSquashedInsts       111035                       # Number of squashed instructions skipped by dispatch (Count)
board.processor.switch2.core.iew.dispLoadInsts     13041292                       # Number of dispatched load instructions (Count)
board.processor.switch2.core.iew.dispStoreInsts      3951547                       # Number of dispatched store instructions (Count)
board.processor.switch2.core.iew.dispNonSpecInsts            0                       # Number of dispatched non-speculative instructions (Count)
board.processor.switch2.core.iew.iqFullEvents          438                       # Number of times the IQ has become full, causing a stall (Count)
board.processor.switch2.core.iew.lsqFullEvents        36167                       # Number of times the LSQ has become full, causing a stall (Count)
board.processor.switch2.core.iew.memOrderViolationEvents          455                       # Number of memory order violations (Count)
board.processor.switch2.core.iew.predictedTakenIncorrect        36940                       # Number of branches that were predicted taken incorrectly (Count)
board.processor.switch2.core.iew.predictedNotTakenIncorrect        30260                       # Number of branches that were predicted not taken incorrectly (Count)
board.processor.switch2.core.iew.branchMispredicts        67200                       # Number of branch mispredicts detected at execute (Count)
board.processor.switch2.core.iew.instsToCommit     78627579                       # Cumulative count of insts sent to commit (Count)
board.processor.switch2.core.iew.writebackCount     78627188                       # Cumulative count of insts written-back (Count)
board.processor.switch2.core.iew.producerInst     44103236                       # Number of instructions producing a value (Count)
board.processor.switch2.core.iew.consumerInst     69264459                       # Number of instructions consuming a value (Count)
board.processor.switch2.core.iew.wbRate      1.823034                       # Insts written-back per cycle ((Count/Cycle))
board.processor.switch2.core.iew.wbFanout     0.636737                       # Average fanout of values written-back ((Count/Count))
board.processor.switch2.core.lsq0.forwLoads       276367                       # Number of loads that had data forwarded from stores (Count)
board.processor.switch2.core.lsq0.squashedLoads        74168                       # Number of loads squashed (Count)
board.processor.switch2.core.lsq0.ignoredResponses           24                       # Number of memory responses ignored because the instruction is squashed (Count)
board.processor.switch2.core.lsq0.memOrderViolation          455                       # Number of memory ordering violations (Count)
board.processor.switch2.core.lsq0.squashedStores        14937                       # Number of stores squashed (Count)
board.processor.switch2.core.lsq0.rescheduledLoads            4                       # Number of loads that were rescheduled (Count)
board.processor.switch2.core.lsq0.blockedByCache            0                       # Number of times an access to memory failed due to the cache being blocked (Count)
board.processor.switch2.core.lsq0.loadToUse::samples     12967119                       # Distribution of cycle latency between the first time a load is issued and its completion (Unspecified)
board.processor.switch2.core.lsq0.loadToUse::mean     2.544873                       # Distribution of cycle latency between the first time a load is issued and its completion (Unspecified)
board.processor.switch2.core.lsq0.loadToUse::stdev     4.366683                       # Distribution of cycle latency between the first time a load is issued and its completion (Unspecified)
board.processor.switch2.core.lsq0.loadToUse::0-9     12749062     98.32%     98.32% # Distribution of cycle latency between the first time a load is issued and its completion (Unspecified)
board.processor.switch2.core.lsq0.loadToUse::10-19       212647      1.64%     99.96% # Distribution of cycle latency between the first time a load is issued and its completion (Unspecified)
board.processor.switch2.core.lsq0.loadToUse::20-29           32      0.00%     99.96% # Distribution of cycle latency between the first time a load is issued and its completion (Unspecified)
board.processor.switch2.core.lsq0.loadToUse::30-39           51      0.00%     99.96% # Distribution of cycle latency between the first time a load is issued and its completion (Unspecified)
board.processor.switch2.core.lsq0.loadToUse::40-49          110      0.00%     99.96% # Distribution of cycle latency between the first time a load is issued and its completion (Unspecified)
board.processor.switch2.core.lsq0.loadToUse::50-59          146      0.00%     99.96% # Distribution of cycle latency between the first time a load is issued and its completion (Unspecified)
board.processor.switch2.core.lsq0.loadToUse::60-69          110      0.00%     99.96% # Distribution of cycle latency between the first time a load is issued and its completion (Unspecified)
board.processor.switch2.core.lsq0.loadToUse::70-79           47      0.00%     99.96% # Distribution of cycle latency between the first time a load is issued and its completion (Unspecified)
board.processor.switch2.core.lsq0.loadToUse::80-89           31      0.00%     99.96% # Distribution of cycle latency between the first time a load is issued and its completion (Unspecified)
board.processor.switch2.core.lsq0.loadToUse::90-99            9      0.00%     99.96% # Distribution of cycle latency between the first time a load is issued and its completion (Unspecified)
board.processor.switch2.core.lsq0.loadToUse::100-109           19      0.00%     99.96% # Distribution of cycle latency between the first time a load is issued and its completion (Unspecified)
board.processor.switch2.core.lsq0.loadToUse::110-119            7      0.00%     99.96% # Distribution of cycle latency between the first time a load is issued and its completion (Unspecified)
board.processor.switch2.core.lsq0.loadToUse::120-129           16      0.00%     99.96% # Distribution of cycle latency between the first time a load is issued and its completion (Unspecified)
board.processor.switch2.core.lsq0.loadToUse::130-139          331      0.00%     99.97% # Distribution of cycle latency between the first time a load is issued and its completion (Unspecified)
board.processor.switch2.core.lsq0.loadToUse::140-149         2007      0.02%     99.98% # Distribution of cycle latency between the first time a load is issued and its completion (Unspecified)
board.processor.switch2.core.lsq0.loadToUse::150-159           80      0.00%     99.98% # Distribution of cycle latency between the first time a load is issued and its completion (Unspecified)
board.processor.switch2.core.lsq0.loadToUse::160-169           99      0.00%     99.98% # Distribution of cycle latency between the first time a load is issued and its completion (Unspecified)
board.processor.switch2.core.lsq0.loadToUse::170-179          166      0.00%     99.98% # Distribution of cycle latency between the first time a load is issued and its completion (Unspecified)
board.processor.switch2.core.lsq0.loadToUse::180-189         1554      0.01%    100.00% # Distribution of cycle latency between the first time a load is issued and its completion (Unspecified)
board.processor.switch2.core.lsq0.loadToUse::190-199           54      0.00%    100.00% # Distribution of cycle latency between the first time a load is issued and its completion (Unspecified)
board.processor.switch2.core.lsq0.loadToUse::200-209           26      0.00%    100.00% # Distribution of cycle latency between the first time a load is issued and its completion (Unspecified)
board.processor.switch2.core.lsq0.loadToUse::210-219           16      0.00%    100.00% # Distribution of cycle latency between the first time a load is issued and its completion (Unspecified)
board.processor.switch2.core.lsq0.loadToUse::220-229          178      0.00%    100.00% # Distribution of cycle latency between the first time a load is issued and its completion (Unspecified)
board.processor.switch2.core.lsq0.loadToUse::230-239           20      0.00%    100.00% # Distribution of cycle latency between the first time a load is issued and its completion (Unspecified)
board.processor.switch2.core.lsq0.loadToUse::240-249            6      0.00%    100.00% # Distribution of cycle latency between the first time a load is issued and its completion (Unspecified)
board.processor.switch2.core.lsq0.loadToUse::250-259            3      0.00%    100.00% # Distribution of cycle latency between the first time a load is issued and its completion (Unspecified)
board.processor.switch2.core.lsq0.loadToUse::260-269            4      0.00%    100.00% # Distribution of cycle latency between the first time a load is issued and its completion (Unspecified)
board.processor.switch2.core.lsq0.loadToUse::270-279            8      0.00%    100.00% # Distribution of cycle latency between the first time a load is issued and its completion (Unspecified)
board.processor.switch2.core.lsq0.loadToUse::280-289            8      0.00%    100.00% # Distribution of cycle latency between the first time a load is issued and its completion (Unspecified)
board.processor.switch2.core.lsq0.loadToUse::290-299           10      0.00%    100.00% # Distribution of cycle latency between the first time a load is issued and its completion (Unspecified)
board.processor.switch2.core.lsq0.loadToUse::overflows          262      0.00%    100.00% # Distribution of cycle latency between the first time a load is issued and its completion (Unspecified)
board.processor.switch2.core.lsq0.loadToUse::min_value            2                       # Distribution of cycle latency between the first time a load is issued and its completion (Unspecified)
board.processor.switch2.core.lsq0.loadToUse::max_value          997                       # Distribution of cycle latency between the first time a load is issued and its completion (Unspecified)
board.processor.switch2.core.lsq0.loadToUse::total     12967119                       # Distribution of cycle latency between the first time a load is issued and its completion (Unspecified)
board.processor.switch2.core.mmu.dtb.rdAccesses     13007700                       # TLB accesses on read requests (Count)
board.processor.switch2.core.mmu.dtb.wrAccesses      3949579                       # TLB accesses on write requests (Count)
board.processor.switch2.core.mmu.dtb.rdMisses          908                       # TLB misses on read requests (Count)
board.processor.switch2.core.mmu.dtb.wrMisses           11                       # TLB misses on write requests (Count)
board.processor.switch2.core.mmu.dtb.walker.power_state.pwrStateResidencyTicks::UNDEFINED 227209126493611                       # Cumulative time (in ticks) in various power states (Tick)
board.processor.switch2.core.mmu.itb.rdAccesses            0                       # TLB accesses on read requests (Count)
board.processor.switch2.core.mmu.itb.wrAccesses      5019452                       # TLB accesses on write requests (Count)
board.processor.switch2.core.mmu.itb.rdMisses            0                       # TLB misses on read requests (Count)
board.processor.switch2.core.mmu.itb.wrMisses            6                       # TLB misses on write requests (Count)
board.processor.switch2.core.mmu.itb.walker.power_state.pwrStateResidencyTicks::UNDEFINED 227209126493611                       # Cumulative time (in ticks) in various power states (Tick)
board.processor.switch2.core.power_state.pwrStateResidencyTicks::OFF 227209126493611                       # Cumulative time (in ticks) in various power states (Tick)
board.processor.switch2.core.rename.squashCycles        67240                       # Number of cycles rename is squashing (Cycle)
board.processor.switch2.core.rename.idleCycles      1709424                       # Number of cycles rename is idle (Cycle)
board.processor.switch2.core.rename.blockCycles       197867                       # Number of cycles rename is blocking (Cycle)
board.processor.switch2.core.rename.serializeStallCycles            0                       # count of cycles rename stalled for serializing inst (Cycle)
board.processor.switch2.core.rename.runCycles     41012004                       # Number of cycles rename is running (Cycle)
board.processor.switch2.core.rename.unblockCycles       143289                       # Number of cycles rename is unblocking (Cycle)
board.processor.switch2.core.rename.renamedInsts     79136965                       # Number of instructions processed by rename (Count)
board.processor.switch2.core.rename.ROBFullEvents          716                       # Number of times rename has blocked due to ROB full (Count)
board.processor.switch2.core.rename.IQFullEvents         1595                       # Number of times rename has blocked due to IQ full (Count)
board.processor.switch2.core.rename.LQFullEvents       137365                       # Number of times rename has blocked due to LQ full (Count)
board.processor.switch2.core.rename.SQFullEvents          495                       # Number of times rename has blocked due to SQ full (Count)
board.processor.switch2.core.rename.fullRegistersEvents            4                       # Number of times there has been no free registers (Count)
board.processor.switch2.core.rename.renamedOperands    104395495                       # Number of destination operands rename has renamed (Count)
board.processor.switch2.core.rename.lookups    223029312                       # Number of register rename lookups that rename has made (Count)
board.processor.switch2.core.rename.intLookups     45654180                       # Number of integer rename lookups (Count)
board.processor.switch2.core.rename.fpLookups     91502396                       # Number of floating rename lookups (Count)
board.processor.switch2.core.rename.committedMaps    102823062                       # Number of HB maps that are committed (Count)
board.processor.switch2.core.rename.undoneMaps      1572409                       # Number of HB maps that are undone due to squashing (Count)
board.processor.switch2.core.rename.serializing            0                       # count of serializing insts renamed (Count)
board.processor.switch2.core.rename.tempSerializing            0                       # count of temporary serializing insts renamed (Count)
board.processor.switch2.core.rename.skidInsts        24320                       # count of insts added to the skid buffer (Count)
board.processor.switch2.core.rob.reads       84020445                       # The number of ROB reads (Count)
board.processor.switch2.core.rob.writes     157854377                       # The number of ROB writes (Count)
board.processor.switch2.core.thread_0.numInsts     53724652                       # Number of Instructions committed (Count)
board.processor.switch2.core.thread_0.numOps     78341378                       # Number of Ops committed (Count)
board.processor.switch2.core.thread_0.numMemRefs            0                       # Number of Memory References (Count)
board.workload.inst.arm                             0                       # number of arm instructions executed (Count)
board.workload.inst.quiesce                         0                       # number of quiesce instructions executed (Count)

---------- End Simulation Statistics   ----------
