
---------- Begin Simulation Statistics ----------
simSeconds                                   0.014297                       # Number of seconds simulated (Second)
simTicks                                  14296613190                       # Number of ticks simulated (Tick)
finalTick                                228478933140220                       # Number of ticks from beginning of simulation (restored from checkpoints and never reset) (Tick)
simFreq                                  1000000000000                       # The number of ticks per simulated second ((Tick/Second))
hostSeconds                                    207.70                       # Real time elapsed on the host (Second)
hostTickRate                                 68833163                       # The number of ticks simulated per host second (ticks/s) ((Tick/Second))
hostMemory                                    4391784                       # Number of bytes of host memory used (Byte)
simInsts                                 1646062942258                       # Number of instructions simulated (Count)
simOps                                   1646181061522                       # Number of ops (including micro ops) simulated (Count)
hostInstRate                               7925208299                       # Simulator instruction rate (inst/s) ((Count/Second))
hostOpRate                                 7925776619                       # Simulator op (including micro ops) rate (op/s) ((Count/Second))
board.cache_hierarchy.l1d-cache-0.demandHits::processor.switch2.core.data     15934715                       # number of demand (read+write) hits (Count)
board.cache_hierarchy.l1d-cache-0.demandHits::total     15934715                       # number of demand (read+write) hits (Count)
board.cache_hierarchy.l1d-cache-0.overallHits::processor.switch2.core.data     15934715                       # number of overall hits (Count)
board.cache_hierarchy.l1d-cache-0.overallHits::total     15934715                       # number of overall hits (Count)
board.cache_hierarchy.l1d-cache-0.demandMisses::processor.switch2.core.data       836958                       # number of demand (read+write) misses (Count)
board.cache_hierarchy.l1d-cache-0.demandMisses::total       836958                       # number of demand (read+write) misses (Count)
board.cache_hierarchy.l1d-cache-0.overallMisses::processor.switch2.core.data       836958                       # number of overall misses (Count)
board.cache_hierarchy.l1d-cache-0.overallMisses::total       836958                       # number of overall misses (Count)
board.cache_hierarchy.l1d-cache-0.demandMissLatency::processor.switch2.core.data   2397822111                       # number of demand (read+write) miss ticks (Tick)
board.cache_hierarchy.l1d-cache-0.demandMissLatency::total   2397822111                       # number of demand (read+write) miss ticks (Tick)
board.cache_hierarchy.l1d-cache-0.overallMissLatency::processor.switch2.core.data   2397822111                       # number of overall miss ticks (Tick)
board.cache_hierarchy.l1d-cache-0.overallMissLatency::total   2397822111                       # number of overall miss ticks (Tick)
board.cache_hierarchy.l1d-cache-0.demandAccesses::processor.switch2.core.data     16771673                       # number of demand (read+write) accesses (Count)
board.cache_hierarchy.l1d-cache-0.demandAccesses::total     16771673                       # number of demand (read+write) accesses (Count)
board.cache_hierarchy.l1d-cache-0.overallAccesses::processor.switch2.core.data     16771673                       # number of overall (read+write) accesses (Count)
board.cache_hierarchy.l1d-cache-0.overallAccesses::total     16771673                       # number of overall (read+write) accesses (Count)
board.cache_hierarchy.l1d-cache-0.demandMissRate::processor.switch2.core.data     0.049903                       # miss rate for demand accesses (Ratio)
board.cache_hierarchy.l1d-cache-0.demandMissRate::total     0.049903                       # miss rate for demand accesses (Ratio)
board.cache_hierarchy.l1d-cache-0.overallMissRate::processor.switch2.core.data     0.049903                       # miss rate for overall accesses (Ratio)
board.cache_hierarchy.l1d-cache-0.overallMissRate::total     0.049903                       # miss rate for overall accesses (Ratio)
board.cache_hierarchy.l1d-cache-0.demandAvgMissLatency::processor.switch2.core.data  2864.925254                       # average overall miss latency in ticks ((Tick/Count))
board.cache_hierarchy.l1d-cache-0.demandAvgMissLatency::total  2864.925254                       # average overall miss latency in ticks ((Tick/Count))
board.cache_hierarchy.l1d-cache-0.overallAvgMissLatency::processor.switch2.core.data  2864.925254                       # average overall miss latency ((Tick/Count))
board.cache_hierarchy.l1d-cache-0.overallAvgMissLatency::total  2864.925254                       # average overall miss latency ((Tick/Count))
board.cache_hierarchy.l1d-cache-0.blockedCycles::no_mshrs            0                       # number of cycles access was blocked (Cycle)
board.cache_hierarchy.l1d-cache-0.blockedCycles::no_targets            0                       # number of cycles access was blocked (Cycle)
board.cache_hierarchy.l1d-cache-0.blockedCauses::no_mshrs            0                       # number of times access was blocked (Count)
board.cache_hierarchy.l1d-cache-0.blockedCauses::no_targets            0                       # number of times access was blocked (Count)
board.cache_hierarchy.l1d-cache-0.avgBlocked::no_mshrs          nan                       # average number of cycles each access was blocked ((Cycle/Count))
board.cache_hierarchy.l1d-cache-0.avgBlocked::no_targets          nan                       # average number of cycles each access was blocked ((Cycle/Count))
board.cache_hierarchy.l1d-cache-0.writebacks::writebacks       108700                       # number of writebacks (Count)
board.cache_hierarchy.l1d-cache-0.writebacks::total       108700                       # number of writebacks (Count)
board.cache_hierarchy.l1d-cache-0.demandMshrHits::processor.switch2.core.data       430839                       # number of demand (read+write) MSHR hits (Count)
board.cache_hierarchy.l1d-cache-0.demandMshrHits::total       430839                       # number of demand (read+write) MSHR hits (Count)
board.cache_hierarchy.l1d-cache-0.overallMshrHits::processor.switch2.core.data       430839                       # number of overall MSHR hits (Count)
board.cache_hierarchy.l1d-cache-0.overallMshrHits::total       430839                       # number of overall MSHR hits (Count)
board.cache_hierarchy.l1d-cache-0.demandMshrMisses::processor.switch2.core.data       406119                       # number of demand (read+write) MSHR misses (Count)
board.cache_hierarchy.l1d-cache-0.demandMshrMisses::total       406119                       # number of demand (read+write) MSHR misses (Count)
board.cache_hierarchy.l1d-cache-0.overallMshrMisses::processor.switch2.core.data       406119                       # number of overall MSHR misses (Count)
board.cache_hierarchy.l1d-cache-0.overallMshrMisses::total       406119                       # number of overall MSHR misses (Count)
board.cache_hierarchy.l1d-cache-0.demandMshrMissLatency::processor.switch2.core.data   1106120772                       # number of demand (read+write) MSHR miss ticks (Tick)
board.cache_hierarchy.l1d-cache-0.demandMshrMissLatency::total   1106120772                       # number of demand (read+write) MSHR miss ticks (Tick)
board.cache_hierarchy.l1d-cache-0.overallMshrMissLatency::processor.switch2.core.data   1106120772                       # number of overall MSHR miss ticks (Tick)
board.cache_hierarchy.l1d-cache-0.overallMshrMissLatency::total   1106120772                       # number of overall MSHR miss ticks (Tick)
board.cache_hierarchy.l1d-cache-0.demandMshrMissRate::processor.switch2.core.data     0.024215                       # mshr miss ratio for demand accesses (Ratio)
board.cache_hierarchy.l1d-cache-0.demandMshrMissRate::total     0.024215                       # mshr miss ratio for demand accesses (Ratio)
board.cache_hierarchy.l1d-cache-0.overallMshrMissRate::processor.switch2.core.data     0.024215                       # mshr miss ratio for overall accesses (Ratio)
board.cache_hierarchy.l1d-cache-0.overallMshrMissRate::total     0.024215                       # mshr miss ratio for overall accesses (Ratio)
board.cache_hierarchy.l1d-cache-0.demandAvgMshrMissLatency::processor.switch2.core.data  2723.637092                       # average overall mshr miss latency ((Tick/Count))
board.cache_hierarchy.l1d-cache-0.demandAvgMshrMissLatency::total  2723.637092                       # average overall mshr miss latency ((Tick/Count))
board.cache_hierarchy.l1d-cache-0.overallAvgMshrMissLatency::processor.switch2.core.data  2723.637092                       # average overall mshr miss latency ((Tick/Count))
board.cache_hierarchy.l1d-cache-0.overallAvgMshrMissLatency::total  2723.637092                       # average overall mshr miss latency ((Tick/Count))
board.cache_hierarchy.l1d-cache-0.replacements       406119                       # number of replacements (Count)
board.cache_hierarchy.l1d-cache-0.ReadReq.hits::processor.switch2.core.data     11956938                       # number of ReadReq hits (Count)
board.cache_hierarchy.l1d-cache-0.ReadReq.hits::total     11956938                       # number of ReadReq hits (Count)
board.cache_hierarchy.l1d-cache-0.ReadReq.misses::processor.switch2.core.data       824747                       # number of ReadReq misses (Count)
board.cache_hierarchy.l1d-cache-0.ReadReq.misses::total       824747                       # number of ReadReq misses (Count)
board.cache_hierarchy.l1d-cache-0.ReadReq.missLatency::processor.switch2.core.data   2364777189                       # number of ReadReq miss ticks (Tick)
board.cache_hierarchy.l1d-cache-0.ReadReq.missLatency::total   2364777189                       # number of ReadReq miss ticks (Tick)
board.cache_hierarchy.l1d-cache-0.ReadReq.accesses::processor.switch2.core.data     12781685                       # number of ReadReq accesses(hits+misses) (Count)
board.cache_hierarchy.l1d-cache-0.ReadReq.accesses::total     12781685                       # number of ReadReq accesses(hits+misses) (Count)
board.cache_hierarchy.l1d-cache-0.ReadReq.missRate::processor.switch2.core.data     0.064526                       # miss rate for ReadReq accesses (Ratio)
board.cache_hierarchy.l1d-cache-0.ReadReq.missRate::total     0.064526                       # miss rate for ReadReq accesses (Ratio)
board.cache_hierarchy.l1d-cache-0.ReadReq.avgMissLatency::processor.switch2.core.data  2867.275891                       # average ReadReq miss latency ((Tick/Count))
board.cache_hierarchy.l1d-cache-0.ReadReq.avgMissLatency::total  2867.275891                       # average ReadReq miss latency ((Tick/Count))
board.cache_hierarchy.l1d-cache-0.ReadReq.mshrHits::processor.switch2.core.data       430828                       # number of ReadReq MSHR hits (Count)
board.cache_hierarchy.l1d-cache-0.ReadReq.mshrHits::total       430828                       # number of ReadReq MSHR hits (Count)
board.cache_hierarchy.l1d-cache-0.ReadReq.mshrMisses::processor.switch2.core.data       393919                       # number of ReadReq MSHR misses (Count)
board.cache_hierarchy.l1d-cache-0.ReadReq.mshrMisses::total       393919                       # number of ReadReq MSHR misses (Count)
board.cache_hierarchy.l1d-cache-0.ReadReq.mshrMissLatency::processor.switch2.core.data   1077161427                       # number of ReadReq MSHR miss ticks (Tick)
board.cache_hierarchy.l1d-cache-0.ReadReq.mshrMissLatency::total   1077161427                       # number of ReadReq MSHR miss ticks (Tick)
board.cache_hierarchy.l1d-cache-0.ReadReq.mshrMissRate::processor.switch2.core.data     0.030819                       # mshr miss rate for ReadReq accesses (Ratio)
board.cache_hierarchy.l1d-cache-0.ReadReq.mshrMissRate::total     0.030819                       # mshr miss rate for ReadReq accesses (Ratio)
board.cache_hierarchy.l1d-cache-0.ReadReq.avgMshrMissLatency::processor.switch2.core.data  2734.474415                       # average ReadReq mshr miss latency ((Tick/Count))
board.cache_hierarchy.l1d-cache-0.ReadReq.avgMshrMissLatency::total  2734.474415                       # average ReadReq mshr miss latency ((Tick/Count))
board.cache_hierarchy.l1d-cache-0.WriteReq.hits::processor.switch2.core.data      3977777                       # number of WriteReq hits (Count)
board.cache_hierarchy.l1d-cache-0.WriteReq.hits::total      3977777                       # number of WriteReq hits (Count)
board.cache_hierarchy.l1d-cache-0.WriteReq.misses::processor.switch2.core.data        12211                       # number of WriteReq misses (Count)
board.cache_hierarchy.l1d-cache-0.WriteReq.misses::total        12211                       # number of WriteReq misses (Count)
board.cache_hierarchy.l1d-cache-0.WriteReq.missLatency::processor.switch2.core.data     33044922                       # number of WriteReq miss ticks (Tick)
board.cache_hierarchy.l1d-cache-0.WriteReq.missLatency::total     33044922                       # number of WriteReq miss ticks (Tick)
board.cache_hierarchy.l1d-cache-0.WriteReq.accesses::processor.switch2.core.data      3989988                       # number of WriteReq accesses(hits+misses) (Count)
board.cache_hierarchy.l1d-cache-0.WriteReq.accesses::total      3989988                       # number of WriteReq accesses(hits+misses) (Count)
board.cache_hierarchy.l1d-cache-0.WriteReq.missRate::processor.switch2.core.data     0.003060                       # miss rate for WriteReq accesses (Ratio)
board.cache_hierarchy.l1d-cache-0.WriteReq.missRate::total     0.003060                       # miss rate for WriteReq accesses (Ratio)
board.cache_hierarchy.l1d-cache-0.WriteReq.avgMissLatency::processor.switch2.core.data  2706.160183                       # average WriteReq miss latency ((Tick/Count))
board.cache_hierarchy.l1d-cache-0.WriteReq.avgMissLatency::total  2706.160183                       # average WriteReq miss latency ((Tick/Count))
board.cache_hierarchy.l1d-cache-0.WriteReq.mshrHits::processor.switch2.core.data           11                       # number of WriteReq MSHR hits (Count)
board.cache_hierarchy.l1d-cache-0.WriteReq.mshrHits::total           11                       # number of WriteReq MSHR hits (Count)
board.cache_hierarchy.l1d-cache-0.WriteReq.mshrMisses::processor.switch2.core.data        12200                       # number of WriteReq MSHR misses (Count)
board.cache_hierarchy.l1d-cache-0.WriteReq.mshrMisses::total        12200                       # number of WriteReq MSHR misses (Count)
board.cache_hierarchy.l1d-cache-0.WriteReq.mshrMissLatency::processor.switch2.core.data     28959345                       # number of WriteReq MSHR miss ticks (Tick)
board.cache_hierarchy.l1d-cache-0.WriteReq.mshrMissLatency::total     28959345                       # number of WriteReq MSHR miss ticks (Tick)
board.cache_hierarchy.l1d-cache-0.WriteReq.mshrMissRate::processor.switch2.core.data     0.003058                       # mshr miss rate for WriteReq accesses (Ratio)
board.cache_hierarchy.l1d-cache-0.WriteReq.mshrMissRate::total     0.003058                       # mshr miss rate for WriteReq accesses (Ratio)
board.cache_hierarchy.l1d-cache-0.WriteReq.avgMshrMissLatency::processor.switch2.core.data  2373.716803                       # average WriteReq mshr miss latency ((Tick/Count))
board.cache_hierarchy.l1d-cache-0.WriteReq.avgMshrMissLatency::total  2373.716803                       # average WriteReq mshr miss latency ((Tick/Count))
board.cache_hierarchy.l1d-cache-0.power_state.pwrStateResidencyTicks::UNDEFINED 228478933140220                       # Cumulative time (in ticks) in various power states (Tick)
board.cache_hierarchy.l1d-cache-0.tags.tagsInUse          512                       # Average ticks per tags in use ((Tick/Count))
board.cache_hierarchy.l1d-cache-0.tags.totalRefs     17011007                       # Total number of references to valid blocks. (Count)
board.cache_hierarchy.l1d-cache-0.tags.sampledRefs       406631                       # Sample count of references to valid blocks. (Count)
board.cache_hierarchy.l1d-cache-0.tags.avgRefs    41.834014                       # Average number of references to valid blocks. ((Count/Count))
board.cache_hierarchy.l1d-cache-0.tags.warmupTick            0                       # The tick when the warmup percentage was hit. (Tick)
board.cache_hierarchy.l1d-cache-0.tags.occupancies::processor.switch1.core.data     9.900504                       # Average occupied blocks per tick, per requestor ((Count/Tick))
board.cache_hierarchy.l1d-cache-0.tags.occupancies::processor.switch2.core.data   502.099496                       # Average occupied blocks per tick, per requestor ((Count/Tick))
board.cache_hierarchy.l1d-cache-0.tags.avgOccs::processor.switch1.core.data     0.019337                       # Average percentage of cache occupancy ((Ratio/Tick))
board.cache_hierarchy.l1d-cache-0.tags.avgOccs::processor.switch2.core.data     0.980663                       # Average percentage of cache occupancy ((Ratio/Tick))
board.cache_hierarchy.l1d-cache-0.tags.avgOccs::total            1                       # Average percentage of cache occupancy ((Ratio/Tick))
board.cache_hierarchy.l1d-cache-0.tags.occupanciesTaskId::1024          512                       # Occupied blocks per task id (Count)
board.cache_hierarchy.l1d-cache-0.tags.ageTaskId_1024::0           16                       # Occupied blocks per task id, per block age (Count)
board.cache_hierarchy.l1d-cache-0.tags.ageTaskId_1024::1           86                       # Occupied blocks per task id, per block age (Count)
board.cache_hierarchy.l1d-cache-0.tags.ageTaskId_1024::2          410                       # Occupied blocks per task id, per block age (Count)
board.cache_hierarchy.l1d-cache-0.tags.ratioOccsTaskId::1024            1                       # Ratio of occupied blocks and all blocks, per task id (Ratio)
board.cache_hierarchy.l1d-cache-0.tags.tagAccesses     67492811                       # Number of tag accesses (Count)
board.cache_hierarchy.l1d-cache-0.tags.dataAccesses     67492811                       # Number of data accesses (Count)
board.cache_hierarchy.l1d-cache-0.tags.power_state.pwrStateResidencyTicks::UNDEFINED 228478933140220                       # Cumulative time (in ticks) in various power states (Tick)
board.cache_hierarchy.l1i-cache-0.demandHits::processor.switch2.core.inst      5015020                       # number of demand (read+write) hits (Count)
board.cache_hierarchy.l1i-cache-0.demandHits::total      5015020                       # number of demand (read+write) hits (Count)
board.cache_hierarchy.l1i-cache-0.overallHits::processor.switch2.core.inst      5015020                       # number of overall hits (Count)
board.cache_hierarchy.l1i-cache-0.overallHits::total      5015020                       # number of overall hits (Count)
board.cache_hierarchy.l1i-cache-0.demandMisses::processor.switch2.core.inst            1                       # number of demand (read+write) misses (Count)
board.cache_hierarchy.l1i-cache-0.demandMisses::total            1                       # number of demand (read+write) misses (Count)
board.cache_hierarchy.l1i-cache-0.overallMisses::processor.switch2.core.inst            1                       # number of overall misses (Count)
board.cache_hierarchy.l1i-cache-0.overallMisses::total            1                       # number of overall misses (Count)
board.cache_hierarchy.l1i-cache-0.demandMissLatency::processor.switch2.core.inst       134865                       # number of demand (read+write) miss ticks (Tick)
board.cache_hierarchy.l1i-cache-0.demandMissLatency::total       134865                       # number of demand (read+write) miss ticks (Tick)
board.cache_hierarchy.l1i-cache-0.overallMissLatency::processor.switch2.core.inst       134865                       # number of overall miss ticks (Tick)
board.cache_hierarchy.l1i-cache-0.overallMissLatency::total       134865                       # number of overall miss ticks (Tick)
board.cache_hierarchy.l1i-cache-0.demandAccesses::processor.switch2.core.inst      5015021                       # number of demand (read+write) accesses (Count)
board.cache_hierarchy.l1i-cache-0.demandAccesses::total      5015021                       # number of demand (read+write) accesses (Count)
board.cache_hierarchy.l1i-cache-0.overallAccesses::processor.switch2.core.inst      5015021                       # number of overall (read+write) accesses (Count)
board.cache_hierarchy.l1i-cache-0.overallAccesses::total      5015021                       # number of overall (read+write) accesses (Count)
board.cache_hierarchy.l1i-cache-0.demandMissRate::processor.switch2.core.inst     0.000000                       # miss rate for demand accesses (Ratio)
board.cache_hierarchy.l1i-cache-0.demandMissRate::total     0.000000                       # miss rate for demand accesses (Ratio)
board.cache_hierarchy.l1i-cache-0.overallMissRate::processor.switch2.core.inst     0.000000                       # miss rate for overall accesses (Ratio)
board.cache_hierarchy.l1i-cache-0.overallMissRate::total     0.000000                       # miss rate for overall accesses (Ratio)
board.cache_hierarchy.l1i-cache-0.demandAvgMissLatency::processor.switch2.core.inst       134865                       # average overall miss latency in ticks ((Tick/Count))
board.cache_hierarchy.l1i-cache-0.demandAvgMissLatency::total       134865                       # average overall miss latency in ticks ((Tick/Count))
board.cache_hierarchy.l1i-cache-0.overallAvgMissLatency::processor.switch2.core.inst       134865                       # average overall miss latency ((Tick/Count))
board.cache_hierarchy.l1i-cache-0.overallAvgMissLatency::total       134865                       # average overall miss latency ((Tick/Count))
board.cache_hierarchy.l1i-cache-0.blockedCycles::no_mshrs            0                       # number of cycles access was blocked (Cycle)
board.cache_hierarchy.l1i-cache-0.blockedCycles::no_targets            0                       # number of cycles access was blocked (Cycle)
board.cache_hierarchy.l1i-cache-0.blockedCauses::no_mshrs            0                       # number of times access was blocked (Count)
board.cache_hierarchy.l1i-cache-0.blockedCauses::no_targets            0                       # number of times access was blocked (Count)
board.cache_hierarchy.l1i-cache-0.avgBlocked::no_mshrs          nan                       # average number of cycles each access was blocked ((Cycle/Count))
board.cache_hierarchy.l1i-cache-0.avgBlocked::no_targets          nan                       # average number of cycles each access was blocked ((Cycle/Count))
board.cache_hierarchy.l1i-cache-0.demandMshrMisses::processor.switch2.core.inst            1                       # number of demand (read+write) MSHR misses (Count)
board.cache_hierarchy.l1i-cache-0.demandMshrMisses::total            1                       # number of demand (read+write) MSHR misses (Count)
board.cache_hierarchy.l1i-cache-0.overallMshrMisses::processor.switch2.core.inst            1                       # number of overall MSHR misses (Count)
board.cache_hierarchy.l1i-cache-0.overallMshrMisses::total            1                       # number of overall MSHR misses (Count)
board.cache_hierarchy.l1i-cache-0.demandMshrMissLatency::processor.switch2.core.inst       134532                       # number of demand (read+write) MSHR miss ticks (Tick)
board.cache_hierarchy.l1i-cache-0.demandMshrMissLatency::total       134532                       # number of demand (read+write) MSHR miss ticks (Tick)
board.cache_hierarchy.l1i-cache-0.overallMshrMissLatency::processor.switch2.core.inst       134532                       # number of overall MSHR miss ticks (Tick)
board.cache_hierarchy.l1i-cache-0.overallMshrMissLatency::total       134532                       # number of overall MSHR miss ticks (Tick)
board.cache_hierarchy.l1i-cache-0.demandMshrMissRate::processor.switch2.core.inst     0.000000                       # mshr miss ratio for demand accesses (Ratio)
board.cache_hierarchy.l1i-cache-0.demandMshrMissRate::total     0.000000                       # mshr miss ratio for demand accesses (Ratio)
board.cache_hierarchy.l1i-cache-0.overallMshrMissRate::processor.switch2.core.inst     0.000000                       # mshr miss ratio for overall accesses (Ratio)
board.cache_hierarchy.l1i-cache-0.overallMshrMissRate::total     0.000000                       # mshr miss ratio for overall accesses (Ratio)
board.cache_hierarchy.l1i-cache-0.demandAvgMshrMissLatency::processor.switch2.core.inst       134532                       # average overall mshr miss latency ((Tick/Count))
board.cache_hierarchy.l1i-cache-0.demandAvgMshrMissLatency::total       134532                       # average overall mshr miss latency ((Tick/Count))
board.cache_hierarchy.l1i-cache-0.overallAvgMshrMissLatency::processor.switch2.core.inst       134532                       # average overall mshr miss latency ((Tick/Count))
board.cache_hierarchy.l1i-cache-0.overallAvgMshrMissLatency::total       134532                       # average overall mshr miss latency ((Tick/Count))
board.cache_hierarchy.l1i-cache-0.replacements            0                       # number of replacements (Count)
board.cache_hierarchy.l1i-cache-0.ReadReq.hits::processor.switch2.core.inst      5015020                       # number of ReadReq hits (Count)
board.cache_hierarchy.l1i-cache-0.ReadReq.hits::total      5015020                       # number of ReadReq hits (Count)
board.cache_hierarchy.l1i-cache-0.ReadReq.misses::processor.switch2.core.inst            1                       # number of ReadReq misses (Count)
board.cache_hierarchy.l1i-cache-0.ReadReq.misses::total            1                       # number of ReadReq misses (Count)
board.cache_hierarchy.l1i-cache-0.ReadReq.missLatency::processor.switch2.core.inst       134865                       # number of ReadReq miss ticks (Tick)
board.cache_hierarchy.l1i-cache-0.ReadReq.missLatency::total       134865                       # number of ReadReq miss ticks (Tick)
board.cache_hierarchy.l1i-cache-0.ReadReq.accesses::processor.switch2.core.inst      5015021                       # number of ReadReq accesses(hits+misses) (Count)
board.cache_hierarchy.l1i-cache-0.ReadReq.accesses::total      5015021                       # number of ReadReq accesses(hits+misses) (Count)
board.cache_hierarchy.l1i-cache-0.ReadReq.missRate::processor.switch2.core.inst     0.000000                       # miss rate for ReadReq accesses (Ratio)
board.cache_hierarchy.l1i-cache-0.ReadReq.missRate::total     0.000000                       # miss rate for ReadReq accesses (Ratio)
board.cache_hierarchy.l1i-cache-0.ReadReq.avgMissLatency::processor.switch2.core.inst       134865                       # average ReadReq miss latency ((Tick/Count))
board.cache_hierarchy.l1i-cache-0.ReadReq.avgMissLatency::total       134865                       # average ReadReq miss latency ((Tick/Count))
board.cache_hierarchy.l1i-cache-0.ReadReq.mshrMisses::processor.switch2.core.inst            1                       # number of ReadReq MSHR misses (Count)
board.cache_hierarchy.l1i-cache-0.ReadReq.mshrMisses::total            1                       # number of ReadReq MSHR misses (Count)
board.cache_hierarchy.l1i-cache-0.ReadReq.mshrMissLatency::processor.switch2.core.inst       134532                       # number of ReadReq MSHR miss ticks (Tick)
board.cache_hierarchy.l1i-cache-0.ReadReq.mshrMissLatency::total       134532                       # number of ReadReq MSHR miss ticks (Tick)
board.cache_hierarchy.l1i-cache-0.ReadReq.mshrMissRate::processor.switch2.core.inst     0.000000                       # mshr miss rate for ReadReq accesses (Ratio)
board.cache_hierarchy.l1i-cache-0.ReadReq.mshrMissRate::total     0.000000                       # mshr miss rate for ReadReq accesses (Ratio)
board.cache_hierarchy.l1i-cache-0.ReadReq.avgMshrMissLatency::processor.switch2.core.inst       134532                       # average ReadReq mshr miss latency ((Tick/Count))
board.cache_hierarchy.l1i-cache-0.ReadReq.avgMshrMissLatency::total       134532                       # average ReadReq mshr miss latency ((Tick/Count))
board.cache_hierarchy.l1i-cache-0.power_state.pwrStateResidencyTicks::UNDEFINED 228478933140220                       # Cumulative time (in ticks) in various power states (Tick)
board.cache_hierarchy.l1i-cache-0.tags.tagsInUse   128.795464                       # Average ticks per tags in use ((Tick/Count))
board.cache_hierarchy.l1i-cache-0.tags.totalRefs     24063101                       # Total number of references to valid blocks. (Count)
board.cache_hierarchy.l1i-cache-0.tags.sampledRefs          129                       # Sample count of references to valid blocks. (Count)
board.cache_hierarchy.l1i-cache-0.tags.avgRefs 186535.666667                       # Average number of references to valid blocks. ((Count/Count))
board.cache_hierarchy.l1i-cache-0.tags.warmupTick            0                       # The tick when the warmup percentage was hit. (Tick)
board.cache_hierarchy.l1i-cache-0.tags.occupancies::processor.switch1.core.inst          128                       # Average occupied blocks per tick, per requestor ((Count/Tick))
board.cache_hierarchy.l1i-cache-0.tags.occupancies::processor.switch2.core.inst     0.795464                       # Average occupied blocks per tick, per requestor ((Count/Tick))
board.cache_hierarchy.l1i-cache-0.tags.avgOccs::processor.switch1.core.inst     0.250000                       # Average percentage of cache occupancy ((Ratio/Tick))
board.cache_hierarchy.l1i-cache-0.tags.avgOccs::processor.switch2.core.inst     0.001554                       # Average percentage of cache occupancy ((Ratio/Tick))
board.cache_hierarchy.l1i-cache-0.tags.avgOccs::total     0.251554                       # Average percentage of cache occupancy ((Ratio/Tick))
board.cache_hierarchy.l1i-cache-0.tags.occupanciesTaskId::1024          129                       # Occupied blocks per task id (Count)
board.cache_hierarchy.l1i-cache-0.tags.ageTaskId_1024::4          129                       # Occupied blocks per task id, per block age (Count)
board.cache_hierarchy.l1i-cache-0.tags.ratioOccsTaskId::1024     0.251953                       # Ratio of occupied blocks and all blocks, per task id (Ratio)
board.cache_hierarchy.l1i-cache-0.tags.tagAccesses     20060085                       # Number of tag accesses (Count)
board.cache_hierarchy.l1i-cache-0.tags.dataAccesses     20060085                       # Number of data accesses (Count)
board.cache_hierarchy.l1i-cache-0.tags.power_state.pwrStateResidencyTicks::UNDEFINED 228478933140220                       # Cumulative time (in ticks) in various power states (Tick)
board.cache_hierarchy.l2-cache-0.demandHits::processor.switch2.core.data       403576                       # number of demand (read+write) hits (Count)
board.cache_hierarchy.l2-cache-0.demandHits::total       403576                       # number of demand (read+write) hits (Count)
board.cache_hierarchy.l2-cache-0.overallHits::processor.switch2.core.data       403576                       # number of overall hits (Count)
board.cache_hierarchy.l2-cache-0.overallHits::total       403576                       # number of overall hits (Count)
board.cache_hierarchy.l2-cache-0.demandMisses::processor.switch2.core.inst            1                       # number of demand (read+write) misses (Count)
board.cache_hierarchy.l2-cache-0.demandMisses::processor.switch2.core.data         2543                       # number of demand (read+write) misses (Count)
board.cache_hierarchy.l2-cache-0.demandMisses::total         2544                       # number of demand (read+write) misses (Count)
board.cache_hierarchy.l2-cache-0.overallMisses::processor.switch2.core.inst            1                       # number of overall misses (Count)
board.cache_hierarchy.l2-cache-0.overallMisses::processor.switch2.core.data         2543                       # number of overall misses (Count)
board.cache_hierarchy.l2-cache-0.overallMisses::total         2544                       # number of overall misses (Count)
board.cache_hierarchy.l2-cache-0.demandMissLatency::processor.switch2.core.inst       133866                       # number of demand (read+write) miss ticks (Tick)
board.cache_hierarchy.l2-cache-0.demandMissLatency::processor.switch2.core.data    156415095                       # number of demand (read+write) miss ticks (Tick)
board.cache_hierarchy.l2-cache-0.demandMissLatency::total    156548961                       # number of demand (read+write) miss ticks (Tick)
board.cache_hierarchy.l2-cache-0.overallMissLatency::processor.switch2.core.inst       133866                       # number of overall miss ticks (Tick)
board.cache_hierarchy.l2-cache-0.overallMissLatency::processor.switch2.core.data    156415095                       # number of overall miss ticks (Tick)
board.cache_hierarchy.l2-cache-0.overallMissLatency::total    156548961                       # number of overall miss ticks (Tick)
board.cache_hierarchy.l2-cache-0.demandAccesses::processor.switch2.core.inst            1                       # number of demand (read+write) accesses (Count)
board.cache_hierarchy.l2-cache-0.demandAccesses::processor.switch2.core.data       406119                       # number of demand (read+write) accesses (Count)
board.cache_hierarchy.l2-cache-0.demandAccesses::total       406120                       # number of demand (read+write) accesses (Count)
board.cache_hierarchy.l2-cache-0.overallAccesses::processor.switch2.core.inst            1                       # number of overall (read+write) accesses (Count)
board.cache_hierarchy.l2-cache-0.overallAccesses::processor.switch2.core.data       406119                       # number of overall (read+write) accesses (Count)
board.cache_hierarchy.l2-cache-0.overallAccesses::total       406120                       # number of overall (read+write) accesses (Count)
board.cache_hierarchy.l2-cache-0.demandMissRate::processor.switch2.core.inst            1                       # miss rate for demand accesses (Ratio)
board.cache_hierarchy.l2-cache-0.demandMissRate::processor.switch2.core.data     0.006262                       # miss rate for demand accesses (Ratio)
board.cache_hierarchy.l2-cache-0.demandMissRate::total     0.006264                       # miss rate for demand accesses (Ratio)
board.cache_hierarchy.l2-cache-0.overallMissRate::processor.switch2.core.inst            1                       # miss rate for overall accesses (Ratio)
board.cache_hierarchy.l2-cache-0.overallMissRate::processor.switch2.core.data     0.006262                       # miss rate for overall accesses (Ratio)
board.cache_hierarchy.l2-cache-0.overallMissRate::total     0.006264                       # miss rate for overall accesses (Ratio)
board.cache_hierarchy.l2-cache-0.demandAvgMissLatency::processor.switch2.core.inst       133866                       # average overall miss latency in ticks ((Tick/Count))
board.cache_hierarchy.l2-cache-0.demandAvgMissLatency::processor.switch2.core.data 61508.098702                       # average overall miss latency in ticks ((Tick/Count))
board.cache_hierarchy.l2-cache-0.demandAvgMissLatency::total 61536.541274                       # average overall miss latency in ticks ((Tick/Count))
board.cache_hierarchy.l2-cache-0.overallAvgMissLatency::processor.switch2.core.inst       133866                       # average overall miss latency ((Tick/Count))
board.cache_hierarchy.l2-cache-0.overallAvgMissLatency::processor.switch2.core.data 61508.098702                       # average overall miss latency ((Tick/Count))
board.cache_hierarchy.l2-cache-0.overallAvgMissLatency::total 61536.541274                       # average overall miss latency ((Tick/Count))
board.cache_hierarchy.l2-cache-0.blockedCycles::no_mshrs            0                       # number of cycles access was blocked (Cycle)
board.cache_hierarchy.l2-cache-0.blockedCycles::no_targets            0                       # number of cycles access was blocked (Cycle)
board.cache_hierarchy.l2-cache-0.blockedCauses::no_mshrs            0                       # number of times access was blocked (Count)
board.cache_hierarchy.l2-cache-0.blockedCauses::no_targets            0                       # number of times access was blocked (Count)
board.cache_hierarchy.l2-cache-0.avgBlocked::no_mshrs          nan                       # average number of cycles each access was blocked ((Cycle/Count))
board.cache_hierarchy.l2-cache-0.avgBlocked::no_targets          nan                       # average number of cycles each access was blocked ((Cycle/Count))
board.cache_hierarchy.l2-cache-0.writebacks::writebacks          772                       # number of writebacks (Count)
board.cache_hierarchy.l2-cache-0.writebacks::total          772                       # number of writebacks (Count)
board.cache_hierarchy.l2-cache-0.demandMshrMisses::processor.switch2.core.inst            1                       # number of demand (read+write) MSHR misses (Count)
board.cache_hierarchy.l2-cache-0.demandMshrMisses::processor.switch2.core.data         2543                       # number of demand (read+write) MSHR misses (Count)
board.cache_hierarchy.l2-cache-0.demandMshrMisses::total         2544                       # number of demand (read+write) MSHR misses (Count)
board.cache_hierarchy.l2-cache-0.overallMshrMisses::processor.switch2.core.inst            1                       # number of overall MSHR misses (Count)
board.cache_hierarchy.l2-cache-0.overallMshrMisses::processor.switch2.core.data         2543                       # number of overall MSHR misses (Count)
board.cache_hierarchy.l2-cache-0.overallMshrMisses::total         2544                       # number of overall MSHR misses (Count)
board.cache_hierarchy.l2-cache-0.demandMshrMissLatency::processor.switch2.core.inst       132534                       # number of demand (read+write) MSHR miss ticks (Tick)
board.cache_hierarchy.l2-cache-0.demandMshrMissLatency::processor.switch2.core.data    153027819                       # number of demand (read+write) MSHR miss ticks (Tick)
board.cache_hierarchy.l2-cache-0.demandMshrMissLatency::total    153160353                       # number of demand (read+write) MSHR miss ticks (Tick)
board.cache_hierarchy.l2-cache-0.overallMshrMissLatency::processor.switch2.core.inst       132534                       # number of overall MSHR miss ticks (Tick)
board.cache_hierarchy.l2-cache-0.overallMshrMissLatency::processor.switch2.core.data    153027819                       # number of overall MSHR miss ticks (Tick)
board.cache_hierarchy.l2-cache-0.overallMshrMissLatency::total    153160353                       # number of overall MSHR miss ticks (Tick)
board.cache_hierarchy.l2-cache-0.demandMshrMissRate::processor.switch2.core.inst            1                       # mshr miss ratio for demand accesses (Ratio)
board.cache_hierarchy.l2-cache-0.demandMshrMissRate::processor.switch2.core.data     0.006262                       # mshr miss ratio for demand accesses (Ratio)
board.cache_hierarchy.l2-cache-0.demandMshrMissRate::total     0.006264                       # mshr miss ratio for demand accesses (Ratio)
board.cache_hierarchy.l2-cache-0.overallMshrMissRate::processor.switch2.core.inst            1                       # mshr miss ratio for overall accesses (Ratio)
board.cache_hierarchy.l2-cache-0.overallMshrMissRate::processor.switch2.core.data     0.006262                       # mshr miss ratio for overall accesses (Ratio)
board.cache_hierarchy.l2-cache-0.overallMshrMissRate::total     0.006264                       # mshr miss ratio for overall accesses (Ratio)
board.cache_hierarchy.l2-cache-0.demandAvgMshrMissLatency::processor.switch2.core.inst       132534                       # average overall mshr miss latency ((Tick/Count))
board.cache_hierarchy.l2-cache-0.demandAvgMshrMissLatency::processor.switch2.core.data 60176.098702                       # average overall mshr miss latency ((Tick/Count))
board.cache_hierarchy.l2-cache-0.demandAvgMshrMissLatency::total 60204.541274                       # average overall mshr miss latency ((Tick/Count))
board.cache_hierarchy.l2-cache-0.overallAvgMshrMissLatency::processor.switch2.core.inst       132534                       # average overall mshr miss latency ((Tick/Count))
board.cache_hierarchy.l2-cache-0.overallAvgMshrMissLatency::processor.switch2.core.data 60176.098702                       # average overall mshr miss latency ((Tick/Count))
board.cache_hierarchy.l2-cache-0.overallAvgMshrMissLatency::total 60204.541274                       # average overall mshr miss latency ((Tick/Count))
board.cache_hierarchy.l2-cache-0.replacements         2439                       # number of replacements (Count)
board.cache_hierarchy.l2-cache-0.ReadExReq.hits::processor.switch2.core.data        12192                       # number of ReadExReq hits (Count)
board.cache_hierarchy.l2-cache-0.ReadExReq.hits::total        12192                       # number of ReadExReq hits (Count)
board.cache_hierarchy.l2-cache-0.ReadExReq.misses::processor.switch2.core.data            8                       # number of ReadExReq misses (Count)
board.cache_hierarchy.l2-cache-0.ReadExReq.misses::total            8                       # number of ReadExReq misses (Count)
board.cache_hierarchy.l2-cache-0.ReadExReq.missLatency::processor.switch2.core.data       444222                       # number of ReadExReq miss ticks (Tick)
board.cache_hierarchy.l2-cache-0.ReadExReq.missLatency::total       444222                       # number of ReadExReq miss ticks (Tick)
board.cache_hierarchy.l2-cache-0.ReadExReq.accesses::processor.switch2.core.data        12200                       # number of ReadExReq accesses(hits+misses) (Count)
board.cache_hierarchy.l2-cache-0.ReadExReq.accesses::total        12200                       # number of ReadExReq accesses(hits+misses) (Count)
board.cache_hierarchy.l2-cache-0.ReadExReq.missRate::processor.switch2.core.data     0.000656                       # miss rate for ReadExReq accesses (Ratio)
board.cache_hierarchy.l2-cache-0.ReadExReq.missRate::total     0.000656                       # miss rate for ReadExReq accesses (Ratio)
board.cache_hierarchy.l2-cache-0.ReadExReq.avgMissLatency::processor.switch2.core.data 55527.750000                       # average ReadExReq miss latency ((Tick/Count))
board.cache_hierarchy.l2-cache-0.ReadExReq.avgMissLatency::total 55527.750000                       # average ReadExReq miss latency ((Tick/Count))
board.cache_hierarchy.l2-cache-0.ReadExReq.mshrMisses::processor.switch2.core.data            8                       # number of ReadExReq MSHR misses (Count)
board.cache_hierarchy.l2-cache-0.ReadExReq.mshrMisses::total            8                       # number of ReadExReq MSHR misses (Count)
board.cache_hierarchy.l2-cache-0.ReadExReq.mshrMissLatency::processor.switch2.core.data       433566                       # number of ReadExReq MSHR miss ticks (Tick)
board.cache_hierarchy.l2-cache-0.ReadExReq.mshrMissLatency::total       433566                       # number of ReadExReq MSHR miss ticks (Tick)
board.cache_hierarchy.l2-cache-0.ReadExReq.mshrMissRate::processor.switch2.core.data     0.000656                       # mshr miss rate for ReadExReq accesses (Ratio)
board.cache_hierarchy.l2-cache-0.ReadExReq.mshrMissRate::total     0.000656                       # mshr miss rate for ReadExReq accesses (Ratio)
board.cache_hierarchy.l2-cache-0.ReadExReq.avgMshrMissLatency::processor.switch2.core.data 54195.750000                       # average ReadExReq mshr miss latency ((Tick/Count))
board.cache_hierarchy.l2-cache-0.ReadExReq.avgMshrMissLatency::total 54195.750000                       # average ReadExReq mshr miss latency ((Tick/Count))
board.cache_hierarchy.l2-cache-0.ReadSharedReq.hits::processor.switch2.core.data       391384                       # number of ReadSharedReq hits (Count)
board.cache_hierarchy.l2-cache-0.ReadSharedReq.hits::total       391384                       # number of ReadSharedReq hits (Count)
board.cache_hierarchy.l2-cache-0.ReadSharedReq.misses::processor.switch2.core.inst            1                       # number of ReadSharedReq misses (Count)
board.cache_hierarchy.l2-cache-0.ReadSharedReq.misses::processor.switch2.core.data         2535                       # number of ReadSharedReq misses (Count)
board.cache_hierarchy.l2-cache-0.ReadSharedReq.misses::total         2536                       # number of ReadSharedReq misses (Count)
board.cache_hierarchy.l2-cache-0.ReadSharedReq.missLatency::processor.switch2.core.inst       133866                       # number of ReadSharedReq miss ticks (Tick)
board.cache_hierarchy.l2-cache-0.ReadSharedReq.missLatency::processor.switch2.core.data    155970873                       # number of ReadSharedReq miss ticks (Tick)
board.cache_hierarchy.l2-cache-0.ReadSharedReq.missLatency::total    156104739                       # number of ReadSharedReq miss ticks (Tick)
board.cache_hierarchy.l2-cache-0.ReadSharedReq.accesses::processor.switch2.core.inst            1                       # number of ReadSharedReq accesses(hits+misses) (Count)
board.cache_hierarchy.l2-cache-0.ReadSharedReq.accesses::processor.switch2.core.data       393919                       # number of ReadSharedReq accesses(hits+misses) (Count)
board.cache_hierarchy.l2-cache-0.ReadSharedReq.accesses::total       393920                       # number of ReadSharedReq accesses(hits+misses) (Count)
board.cache_hierarchy.l2-cache-0.ReadSharedReq.missRate::processor.switch2.core.inst            1                       # miss rate for ReadSharedReq accesses (Ratio)
board.cache_hierarchy.l2-cache-0.ReadSharedReq.missRate::processor.switch2.core.data     0.006435                       # miss rate for ReadSharedReq accesses (Ratio)
board.cache_hierarchy.l2-cache-0.ReadSharedReq.missRate::total     0.006438                       # miss rate for ReadSharedReq accesses (Ratio)
board.cache_hierarchy.l2-cache-0.ReadSharedReq.avgMissLatency::processor.switch2.core.inst       133866                       # average ReadSharedReq miss latency ((Tick/Count))
board.cache_hierarchy.l2-cache-0.ReadSharedReq.avgMissLatency::processor.switch2.core.data 61526.971598                       # average ReadSharedReq miss latency ((Tick/Count))
board.cache_hierarchy.l2-cache-0.ReadSharedReq.avgMissLatency::total 61555.496451                       # average ReadSharedReq miss latency ((Tick/Count))
board.cache_hierarchy.l2-cache-0.ReadSharedReq.mshrMisses::processor.switch2.core.inst            1                       # number of ReadSharedReq MSHR misses (Count)
board.cache_hierarchy.l2-cache-0.ReadSharedReq.mshrMisses::processor.switch2.core.data         2535                       # number of ReadSharedReq MSHR misses (Count)
board.cache_hierarchy.l2-cache-0.ReadSharedReq.mshrMisses::total         2536                       # number of ReadSharedReq MSHR misses (Count)
board.cache_hierarchy.l2-cache-0.ReadSharedReq.mshrMissLatency::processor.switch2.core.inst       132534                       # number of ReadSharedReq MSHR miss ticks (Tick)
board.cache_hierarchy.l2-cache-0.ReadSharedReq.mshrMissLatency::processor.switch2.core.data    152594253                       # number of ReadSharedReq MSHR miss ticks (Tick)
board.cache_hierarchy.l2-cache-0.ReadSharedReq.mshrMissLatency::total    152726787                       # number of ReadSharedReq MSHR miss ticks (Tick)
board.cache_hierarchy.l2-cache-0.ReadSharedReq.mshrMissRate::processor.switch2.core.inst            1                       # mshr miss rate for ReadSharedReq accesses (Ratio)
board.cache_hierarchy.l2-cache-0.ReadSharedReq.mshrMissRate::processor.switch2.core.data     0.006435                       # mshr miss rate for ReadSharedReq accesses (Ratio)
board.cache_hierarchy.l2-cache-0.ReadSharedReq.mshrMissRate::total     0.006438                       # mshr miss rate for ReadSharedReq accesses (Ratio)
board.cache_hierarchy.l2-cache-0.ReadSharedReq.avgMshrMissLatency::processor.switch2.core.inst       132534                       # average ReadSharedReq mshr miss latency ((Tick/Count))
board.cache_hierarchy.l2-cache-0.ReadSharedReq.avgMshrMissLatency::processor.switch2.core.data 60194.971598                       # average ReadSharedReq mshr miss latency ((Tick/Count))
board.cache_hierarchy.l2-cache-0.ReadSharedReq.avgMshrMissLatency::total 60223.496451                       # average ReadSharedReq mshr miss latency ((Tick/Count))
board.cache_hierarchy.l2-cache-0.WritebackDirty.hits::writebacks       108700                       # number of WritebackDirty hits (Count)
board.cache_hierarchy.l2-cache-0.WritebackDirty.hits::total       108700                       # number of WritebackDirty hits (Count)
board.cache_hierarchy.l2-cache-0.WritebackDirty.accesses::writebacks       108700                       # number of WritebackDirty accesses(hits+misses) (Count)
board.cache_hierarchy.l2-cache-0.WritebackDirty.accesses::total       108700                       # number of WritebackDirty accesses(hits+misses) (Count)
board.cache_hierarchy.l2-cache-0.power_state.pwrStateResidencyTicks::UNDEFINED 228478933140220                       # Cumulative time (in ticks) in various power states (Tick)
board.cache_hierarchy.l2-cache-0.prefetcher.demandMshrMisses         2544                       # demands not covered by prefetchs (Count)
board.cache_hierarchy.l2-cache-0.prefetcher.pfIssued            0                       # number of hwpf issued (Count)
board.cache_hierarchy.l2-cache-0.prefetcher.pfUseful            0                       # number of useful prefetch (Count)
board.cache_hierarchy.l2-cache-0.prefetcher.pfUsefulButMiss            0                       # number of hit on prefetch but cache block is not in an usable state (Count)
board.cache_hierarchy.l2-cache-0.prefetcher.accuracy          nan                       # accuracy of the prefetcher (Count)
board.cache_hierarchy.l2-cache-0.prefetcher.coverage            0                       # coverage brought by this prefetcher (Count)
board.cache_hierarchy.l2-cache-0.prefetcher.pfHitInCache            0                       # number of prefetches hitting in cache (Count)
board.cache_hierarchy.l2-cache-0.prefetcher.pfHitInMSHR            0                       # number of prefetches hitting in a MSHR (Count)
board.cache_hierarchy.l2-cache-0.prefetcher.pfHitInWB            0                       # number of prefetches hit in the Write Buffer (Count)
board.cache_hierarchy.l2-cache-0.prefetcher.pfLate            0                       # number of late prefetches (hitting in cache, MSHR or WB) (Count)
board.cache_hierarchy.l2-cache-0.prefetcher.pfIdentified            0                       # number of prefetch candidates identified (Count)
board.cache_hierarchy.l2-cache-0.prefetcher.pfBufferHit            0                       # number of redundant prefetches already in prefetch queue (Count)
board.cache_hierarchy.l2-cache-0.prefetcher.pfInCache            0                       # number of redundant prefetches already in cache/mshr dropped (Count)
board.cache_hierarchy.l2-cache-0.prefetcher.pfRemovedDemand            0                       # number of prefetches dropped due to a demand for the same address (Count)
board.cache_hierarchy.l2-cache-0.prefetcher.pfRemovedFull            0                       # number of prefetches dropped due to prefetch queue size (Count)
board.cache_hierarchy.l2-cache-0.prefetcher.pfSpanPage            0                       # number of prefetches that crossed the page (Count)
board.cache_hierarchy.l2-cache-0.prefetcher.pfUsefulSpanPage            0                       # number of prefetches that is useful and crossed the page (Count)
board.cache_hierarchy.l2-cache-0.prefetcher.power_state.pwrStateResidencyTicks::UNDEFINED 228478933140220                       # Cumulative time (in ticks) in various power states (Tick)
board.cache_hierarchy.l2-cache-0.tags.tagsInUse 16162.211021                       # Average ticks per tags in use ((Tick/Count))
board.cache_hierarchy.l2-cache-0.tags.totalRefs      3076592                       # Total number of references to valid blocks. (Count)
board.cache_hierarchy.l2-cache-0.tags.sampledRefs        18634                       # Sample count of references to valid blocks. (Count)
board.cache_hierarchy.l2-cache-0.tags.avgRefs   165.106365                       # Average number of references to valid blocks. ((Count/Count))
board.cache_hierarchy.l2-cache-0.tags.warmupTick            0                       # The tick when the warmup percentage was hit. (Tick)
board.cache_hierarchy.l2-cache-0.tags.occupancies::cache_hierarchy.l2-cache-0.prefetcher    36.789650                       # Average occupied blocks per tick, per requestor ((Count/Tick))
board.cache_hierarchy.l2-cache-0.tags.occupancies::processor.switch1.core.inst     3.864708                       # Average occupied blocks per tick, per requestor ((Count/Tick))
board.cache_hierarchy.l2-cache-0.tags.occupancies::processor.switch1.core.data 14885.980152                       # Average occupied blocks per tick, per requestor ((Count/Tick))
board.cache_hierarchy.l2-cache-0.tags.occupancies::processor.switch2.core.inst     0.795464                       # Average occupied blocks per tick, per requestor ((Count/Tick))
board.cache_hierarchy.l2-cache-0.tags.occupancies::processor.switch2.core.data  1234.781047                       # Average occupied blocks per tick, per requestor ((Count/Tick))
board.cache_hierarchy.l2-cache-0.tags.avgOccs::cache_hierarchy.l2-cache-0.prefetcher     0.002245                       # Average percentage of cache occupancy ((Ratio/Tick))
board.cache_hierarchy.l2-cache-0.tags.avgOccs::processor.switch1.core.inst     0.000236                       # Average percentage of cache occupancy ((Ratio/Tick))
board.cache_hierarchy.l2-cache-0.tags.avgOccs::processor.switch1.core.data     0.908568                       # Average percentage of cache occupancy ((Ratio/Tick))
board.cache_hierarchy.l2-cache-0.tags.avgOccs::processor.switch2.core.inst     0.000049                       # Average percentage of cache occupancy ((Ratio/Tick))
board.cache_hierarchy.l2-cache-0.tags.avgOccs::processor.switch2.core.data     0.075365                       # Average percentage of cache occupancy ((Ratio/Tick))
board.cache_hierarchy.l2-cache-0.tags.avgOccs::total     0.986463                       # Average percentage of cache occupancy ((Ratio/Tick))
board.cache_hierarchy.l2-cache-0.tags.occupanciesTaskId::1022           33                       # Occupied blocks per task id (Count)
board.cache_hierarchy.l2-cache-0.tags.occupanciesTaskId::1024        16162                       # Occupied blocks per task id (Count)
board.cache_hierarchy.l2-cache-0.tags.ageTaskId_1022::4           33                       # Occupied blocks per task id, per block age (Count)
board.cache_hierarchy.l2-cache-0.tags.ageTaskId_1024::2          123                       # Occupied blocks per task id, per block age (Count)
board.cache_hierarchy.l2-cache-0.tags.ageTaskId_1024::3         1765                       # Occupied blocks per task id, per block age (Count)
board.cache_hierarchy.l2-cache-0.tags.ageTaskId_1024::4        14274                       # Occupied blocks per task id, per block age (Count)
board.cache_hierarchy.l2-cache-0.tags.ratioOccsTaskId::1022     0.002014                       # Ratio of occupied blocks and all blocks, per task id (Ratio)
board.cache_hierarchy.l2-cache-0.tags.ratioOccsTaskId::1024     0.986450                       # Ratio of occupied blocks and all blocks, per task id (Ratio)
board.cache_hierarchy.l2-cache-0.tags.tagAccesses      6500456                       # Number of tag accesses (Count)
board.cache_hierarchy.l2-cache-0.tags.dataAccesses      6500456                       # Number of data accesses (Count)
board.cache_hierarchy.l2-cache-0.tags.power_state.pwrStateResidencyTicks::UNDEFINED 228478933140220                       # Cumulative time (in ticks) in various power states (Tick)
board.cache_hierarchy.l2buses.transDist::ReadResp       393920                       # Transaction distribution (Count)
board.cache_hierarchy.l2buses.transDist::WritebackDirty       109472                       # Transaction distribution (Count)
board.cache_hierarchy.l2buses.transDist::CleanEvict       299086                       # Transaction distribution (Count)
board.cache_hierarchy.l2buses.transDist::ReadExReq        12200                       # Transaction distribution (Count)
board.cache_hierarchy.l2buses.transDist::ReadExResp        12200                       # Transaction distribution (Count)
board.cache_hierarchy.l2buses.transDist::ReadSharedReq       393920                       # Transaction distribution (Count)
board.cache_hierarchy.l2buses.pktCount_board.cache_hierarchy.l1i-cache-0.mem_side_port::board.cache_hierarchy.l2-cache-0.cpu_side_port            2                       # Packet count per connected requestor and responder (Count)
board.cache_hierarchy.l2buses.pktCount_board.cache_hierarchy.l1d-cache-0.mem_side_port::board.cache_hierarchy.l2-cache-0.cpu_side_port      1218357                       # Packet count per connected requestor and responder (Count)
board.cache_hierarchy.l2buses.pktCount::total      1218359                       # Packet count per connected requestor and responder (Count)
board.cache_hierarchy.l2buses.pktSize_board.cache_hierarchy.l1i-cache-0.mem_side_port::board.cache_hierarchy.l2-cache-0.cpu_side_port           64                       # Cumulative packet size per connected requestor and responder (Byte)
board.cache_hierarchy.l2buses.pktSize_board.cache_hierarchy.l1d-cache-0.mem_side_port::board.cache_hierarchy.l2-cache-0.cpu_side_port     32948416                       # Cumulative packet size per connected requestor and responder (Byte)
board.cache_hierarchy.l2buses.pktSize::total     32948480                       # Cumulative packet size per connected requestor and responder (Byte)
board.cache_hierarchy.l2buses.snoops             2439                       # Total snoops (Count)
board.cache_hierarchy.l2buses.snoopTraffic        49408                       # Total snoop traffic (Byte)
board.cache_hierarchy.l2buses.snoopFanout::samples       408559                       # Request fanout histogram (Count)
board.cache_hierarchy.l2buses.snoopFanout::mean     0.000012                       # Request fanout histogram (Count)
board.cache_hierarchy.l2buses.snoopFanout::stdev     0.003498                       # Request fanout histogram (Count)
board.cache_hierarchy.l2buses.snoopFanout::underflows            0      0.00%      0.00% # Request fanout histogram (Count)
board.cache_hierarchy.l2buses.snoopFanout::0       408554    100.00%    100.00% # Request fanout histogram (Count)
board.cache_hierarchy.l2buses.snoopFanout::1            5      0.00%    100.00% # Request fanout histogram (Count)
board.cache_hierarchy.l2buses.snoopFanout::2            0      0.00%    100.00% # Request fanout histogram (Count)
board.cache_hierarchy.l2buses.snoopFanout::overflows            0      0.00%    100.00% # Request fanout histogram (Count)
board.cache_hierarchy.l2buses.snoopFanout::min_value            0                       # Request fanout histogram (Count)
board.cache_hierarchy.l2buses.snoopFanout::max_value            1                       # Request fanout histogram (Count)
board.cache_hierarchy.l2buses.snoopFanout::total       408559                       # Request fanout histogram (Count)
board.cache_hierarchy.l2buses.power_state.pwrStateResidencyTicks::UNDEFINED 228478933140220                       # Cumulative time (in ticks) in various power states (Tick)
board.cache_hierarchy.l2buses.reqLayer0.occupancy    342869787                       # Layer occupancy (ticks) (Tick)
board.cache_hierarchy.l2buses.reqLayer0.utilization          0.0                       # Layer utilization (Ratio)
board.cache_hierarchy.l2buses.respLayer0.occupancy          999                       # Layer occupancy (ticks) (Tick)
board.cache_hierarchy.l2buses.respLayer0.utilization          0.0                       # Layer utilization (Ratio)
board.cache_hierarchy.l2buses.respLayer1.occupancy    405712881                       # Layer occupancy (ticks) (Tick)
board.cache_hierarchy.l2buses.respLayer1.utilization          0.0                       # Layer utilization (Ratio)
board.cache_hierarchy.l2buses.snoop_filter.totRequests       812239                       # Total number of requests made to the snoop filter. (Count)
board.cache_hierarchy.l2buses.snoop_filter.hitSingleRequests       406119                       # Number of requests hitting in the snoop filter with a single holder of the requested data. (Count)
board.cache_hierarchy.l2buses.snoop_filter.hitMultiRequests            0                       # Number of requests hitting in the snoop filter with multiple (>1) holders of the requested data. (Count)
board.cache_hierarchy.l2buses.snoop_filter.totSnoops            5                       # Total number of snoops made to the snoop filter. (Count)
board.cache_hierarchy.l2buses.snoop_filter.hitSingleSnoops            5                       # Number of snoops hitting in the snoop filter with a single holder of the requested data. (Count)
board.cache_hierarchy.l2buses.snoop_filter.hitMultiSnoops            0                       # Number of snoops hitting in the snoop filter with multiple (>1) holders of the requested data. (Count)
board.cache_hierarchy.membus.transDist::ReadResp         2536                       # Transaction distribution (Count)
board.cache_hierarchy.membus.transDist::WritebackDirty          772                       # Transaction distribution (Count)
board.cache_hierarchy.membus.transDist::CleanEvict         1662                       # Transaction distribution (Count)
board.cache_hierarchy.membus.transDist::ReadExReq            8                       # Transaction distribution (Count)
board.cache_hierarchy.membus.transDist::ReadExResp            8                       # Transaction distribution (Count)
board.cache_hierarchy.membus.transDist::ReadSharedReq         2536                       # Transaction distribution (Count)
board.cache_hierarchy.membus.pktCount_board.cache_hierarchy.l2-cache-0.mem_side_port::board.memory.mem_ctrl.port         7522                       # Packet count per connected requestor and responder (Count)
board.cache_hierarchy.membus.pktCount_board.cache_hierarchy.l2-cache-0.mem_side_port::total         7522                       # Packet count per connected requestor and responder (Count)
board.cache_hierarchy.membus.pktCount::total         7522                       # Packet count per connected requestor and responder (Count)
board.cache_hierarchy.membus.pktSize_board.cache_hierarchy.l2-cache-0.mem_side_port::board.memory.mem_ctrl.port       212224                       # Cumulative packet size per connected requestor and responder (Byte)
board.cache_hierarchy.membus.pktSize_board.cache_hierarchy.l2-cache-0.mem_side_port::total       212224                       # Cumulative packet size per connected requestor and responder (Byte)
board.cache_hierarchy.membus.pktSize::total       212224                       # Cumulative packet size per connected requestor and responder (Byte)
board.cache_hierarchy.membus.snoops                 0                       # Total snoops (Count)
board.cache_hierarchy.membus.snoopTraffic            0                       # Total snoop traffic (Byte)
board.cache_hierarchy.membus.snoopFanout::samples         2544                       # Request fanout histogram (Count)
board.cache_hierarchy.membus.snoopFanout::mean            0                       # Request fanout histogram (Count)
board.cache_hierarchy.membus.snoopFanout::stdev            0                       # Request fanout histogram (Count)
board.cache_hierarchy.membus.snoopFanout::underflows            0      0.00%      0.00% # Request fanout histogram (Count)
board.cache_hierarchy.membus.snoopFanout::0         2544    100.00%    100.00% # Request fanout histogram (Count)
board.cache_hierarchy.membus.snoopFanout::1            0      0.00%    100.00% # Request fanout histogram (Count)
board.cache_hierarchy.membus.snoopFanout::overflows            0      0.00%    100.00% # Request fanout histogram (Count)
board.cache_hierarchy.membus.snoopFanout::min_value            0                       # Request fanout histogram (Count)
board.cache_hierarchy.membus.snoopFanout::max_value            0                       # Request fanout histogram (Count)
board.cache_hierarchy.membus.snoopFanout::total         2544                       # Request fanout histogram (Count)
board.cache_hierarchy.membus.badaddr_responder.power_state.pwrStateResidencyTicks::UNDEFINED 228478933140220                       # Cumulative time (in ticks) in various power states (Tick)
board.cache_hierarchy.membus.power_state.pwrStateResidencyTicks::UNDEFINED 228478933140220                       # Cumulative time (in ticks) in various power states (Tick)
board.cache_hierarchy.membus.reqLayer0.occupancy      1914750                       # Layer occupancy (ticks) (Tick)
board.cache_hierarchy.membus.reqLayer0.utilization          0.0                       # Layer utilization (Ratio)
board.cache_hierarchy.membus.respLayer1.occupancy      2120894                       # Layer occupancy (ticks) (Tick)
board.cache_hierarchy.membus.respLayer1.utilization          0.0                       # Layer utilization (Ratio)
board.cache_hierarchy.membus.snoop_filter.totRequests         4978                       # Total number of requests made to the snoop filter. (Count)
board.cache_hierarchy.membus.snoop_filter.hitSingleRequests         2434                       # Number of requests hitting in the snoop filter with a single holder of the requested data. (Count)
board.cache_hierarchy.membus.snoop_filter.hitMultiRequests            0                       # Number of requests hitting in the snoop filter with multiple (>1) holders of the requested data. (Count)
board.cache_hierarchy.membus.snoop_filter.totSnoops            0                       # Total number of snoops made to the snoop filter. (Count)
board.cache_hierarchy.membus.snoop_filter.hitSingleSnoops            0                       # Number of snoops hitting in the snoop filter with a single holder of the requested data. (Count)
board.cache_hierarchy.membus.snoop_filter.hitMultiSnoops            0                       # Number of snoops hitting in the snoop filter with multiple (>1) holders of the requested data. (Count)
board.clk_domain.clock                            333                       # Clock period in ticks (Tick)
board.clk_domain.voltage_domain.voltage             1                       # Voltage in Volts (Volt)
board.memory.mem_ctrl.avgPriority_writebacks::samples       772.00                       # Average QoS priority value for accepted requests (Count)
board.memory.mem_ctrl.avgPriority_processor.switch2.core.inst::samples         1.00                       # Average QoS priority value for accepted requests (Count)
board.memory.mem_ctrl.avgPriority_processor.switch2.core.data::samples      2543.00                       # Average QoS priority value for accepted requests (Count)
board.memory.mem_ctrl.priorityMinLatency 0.000000018750                       # per QoS priority minimum request to response latency (Second)
board.memory.mem_ctrl.priorityMaxLatency 0.006800472586                       # per QoS priority maximum request to response latency (Second)
board.memory.mem_ctrl.numReadWriteTurnArounds           45                       # Number of turnarounds from READ to WRITE (Count)
board.memory.mem_ctrl.numWriteReadTurnArounds           45                       # Number of turnarounds from WRITE to READ (Count)
board.memory.mem_ctrl.numStayReadState           9318                       # Number of times bus staying in READ state (Count)
board.memory.mem_ctrl.numStayWriteState           711                       # Number of times bus staying in WRITE state (Count)
board.memory.mem_ctrl.readReqs                   2544                       # Number of read requests accepted (Count)
board.memory.mem_ctrl.writeReqs                   772                       # Number of write requests accepted (Count)
board.memory.mem_ctrl.readBursts                 2544                       # Number of controller read bursts, including those serviced by the write queue (Count)
board.memory.mem_ctrl.writeBursts                 772                       # Number of controller write bursts, including those merged in the write queue (Count)
board.memory.mem_ctrl.servicedByWrQ                 0                       # Number of controller read bursts serviced by the write queue (Count)
board.memory.mem_ctrl.mergedWrBursts                0                       # Number of controller write bursts merged with an existing one (Count)
board.memory.mem_ctrl.neitherReadNorWriteReqs            0                       # Number of requests that are neither read nor write (Count)
board.memory.mem_ctrl.avgRdQLen                  1.23                       # Average read queue length when enqueuing ((Count/Tick))
board.memory.mem_ctrl.avgWrQLen                 24.03                       # Average write queue length when enqueuing ((Count/Tick))
board.memory.mem_ctrl.numRdRetry                    0                       # Number of times read queue was full causing retry (Count)
board.memory.mem_ctrl.numWrRetry                    0                       # Number of times write queue was full causing retry (Count)
board.memory.mem_ctrl.readPktSize::0                0                       # Read request sizes (log2) (Count)
board.memory.mem_ctrl.readPktSize::1                0                       # Read request sizes (log2) (Count)
board.memory.mem_ctrl.readPktSize::2                0                       # Read request sizes (log2) (Count)
board.memory.mem_ctrl.readPktSize::3                0                       # Read request sizes (log2) (Count)
board.memory.mem_ctrl.readPktSize::4                0                       # Read request sizes (log2) (Count)
board.memory.mem_ctrl.readPktSize::5                0                       # Read request sizes (log2) (Count)
board.memory.mem_ctrl.readPktSize::6             2544                       # Read request sizes (log2) (Count)
board.memory.mem_ctrl.writePktSize::0               0                       # Write request sizes (log2) (Count)
board.memory.mem_ctrl.writePktSize::1               0                       # Write request sizes (log2) (Count)
board.memory.mem_ctrl.writePktSize::2               0                       # Write request sizes (log2) (Count)
board.memory.mem_ctrl.writePktSize::3               0                       # Write request sizes (log2) (Count)
board.memory.mem_ctrl.writePktSize::4               0                       # Write request sizes (log2) (Count)
board.memory.mem_ctrl.writePktSize::5               0                       # Write request sizes (log2) (Count)
board.memory.mem_ctrl.writePktSize::6             772                       # Write request sizes (log2) (Count)
board.memory.mem_ctrl.rdQLenPdf::0               1421                       # What read queue length does an incoming req see (Count)
board.memory.mem_ctrl.rdQLenPdf::1                515                       # What read queue length does an incoming req see (Count)
board.memory.mem_ctrl.rdQLenPdf::2                161                       # What read queue length does an incoming req see (Count)
board.memory.mem_ctrl.rdQLenPdf::3                273                       # What read queue length does an incoming req see (Count)
board.memory.mem_ctrl.rdQLenPdf::4                136                       # What read queue length does an incoming req see (Count)
board.memory.mem_ctrl.rdQLenPdf::5                 30                       # What read queue length does an incoming req see (Count)
board.memory.mem_ctrl.rdQLenPdf::6                  8                       # What read queue length does an incoming req see (Count)
board.memory.mem_ctrl.rdQLenPdf::7                  0                       # What read queue length does an incoming req see (Count)
board.memory.mem_ctrl.rdQLenPdf::8                  0                       # What read queue length does an incoming req see (Count)
board.memory.mem_ctrl.rdQLenPdf::9                  0                       # What read queue length does an incoming req see (Count)
board.memory.mem_ctrl.rdQLenPdf::10                 0                       # What read queue length does an incoming req see (Count)
board.memory.mem_ctrl.rdQLenPdf::11                 0                       # What read queue length does an incoming req see (Count)
board.memory.mem_ctrl.rdQLenPdf::12                 0                       # What read queue length does an incoming req see (Count)
board.memory.mem_ctrl.rdQLenPdf::13                 0                       # What read queue length does an incoming req see (Count)
board.memory.mem_ctrl.rdQLenPdf::14                 0                       # What read queue length does an incoming req see (Count)
board.memory.mem_ctrl.rdQLenPdf::15                 0                       # What read queue length does an incoming req see (Count)
board.memory.mem_ctrl.rdQLenPdf::16                 0                       # What read queue length does an incoming req see (Count)
board.memory.mem_ctrl.rdQLenPdf::17                 0                       # What read queue length does an incoming req see (Count)
board.memory.mem_ctrl.rdQLenPdf::18                 0                       # What read queue length does an incoming req see (Count)
board.memory.mem_ctrl.rdQLenPdf::19                 0                       # What read queue length does an incoming req see (Count)
board.memory.mem_ctrl.rdQLenPdf::20                 0                       # What read queue length does an incoming req see (Count)
board.memory.mem_ctrl.rdQLenPdf::21                 0                       # What read queue length does an incoming req see (Count)
board.memory.mem_ctrl.rdQLenPdf::22                 0                       # What read queue length does an incoming req see (Count)
board.memory.mem_ctrl.rdQLenPdf::23                 0                       # What read queue length does an incoming req see (Count)
board.memory.mem_ctrl.rdQLenPdf::24                 0                       # What read queue length does an incoming req see (Count)
board.memory.mem_ctrl.rdQLenPdf::25                 0                       # What read queue length does an incoming req see (Count)
board.memory.mem_ctrl.rdQLenPdf::26                 0                       # What read queue length does an incoming req see (Count)
board.memory.mem_ctrl.rdQLenPdf::27                 0                       # What read queue length does an incoming req see (Count)
board.memory.mem_ctrl.rdQLenPdf::28                 0                       # What read queue length does an incoming req see (Count)
board.memory.mem_ctrl.rdQLenPdf::29                 0                       # What read queue length does an incoming req see (Count)
board.memory.mem_ctrl.rdQLenPdf::30                 0                       # What read queue length does an incoming req see (Count)
board.memory.mem_ctrl.rdQLenPdf::31                 0                       # What read queue length does an incoming req see (Count)
board.memory.mem_ctrl.wrQLenPdf::0                  1                       # What write queue length does an incoming req see (Count)
board.memory.mem_ctrl.wrQLenPdf::1                  1                       # What write queue length does an incoming req see (Count)
board.memory.mem_ctrl.wrQLenPdf::2                  1                       # What write queue length does an incoming req see (Count)
board.memory.mem_ctrl.wrQLenPdf::3                  1                       # What write queue length does an incoming req see (Count)
board.memory.mem_ctrl.wrQLenPdf::4                  1                       # What write queue length does an incoming req see (Count)
board.memory.mem_ctrl.wrQLenPdf::5                  1                       # What write queue length does an incoming req see (Count)
board.memory.mem_ctrl.wrQLenPdf::6                  1                       # What write queue length does an incoming req see (Count)
board.memory.mem_ctrl.wrQLenPdf::7                  1                       # What write queue length does an incoming req see (Count)
board.memory.mem_ctrl.wrQLenPdf::8                  1                       # What write queue length does an incoming req see (Count)
board.memory.mem_ctrl.wrQLenPdf::9                  1                       # What write queue length does an incoming req see (Count)
board.memory.mem_ctrl.wrQLenPdf::10                 1                       # What write queue length does an incoming req see (Count)
board.memory.mem_ctrl.wrQLenPdf::11                 1                       # What write queue length does an incoming req see (Count)
board.memory.mem_ctrl.wrQLenPdf::12                 1                       # What write queue length does an incoming req see (Count)
board.memory.mem_ctrl.wrQLenPdf::13                 1                       # What write queue length does an incoming req see (Count)
board.memory.mem_ctrl.wrQLenPdf::14                 1                       # What write queue length does an incoming req see (Count)
board.memory.mem_ctrl.wrQLenPdf::15                17                       # What write queue length does an incoming req see (Count)
board.memory.mem_ctrl.wrQLenPdf::16                16                       # What write queue length does an incoming req see (Count)
board.memory.mem_ctrl.wrQLenPdf::17                33                       # What write queue length does an incoming req see (Count)
board.memory.mem_ctrl.wrQLenPdf::18                36                       # What write queue length does an incoming req see (Count)
board.memory.mem_ctrl.wrQLenPdf::19                41                       # What write queue length does an incoming req see (Count)
board.memory.mem_ctrl.wrQLenPdf::20                43                       # What write queue length does an incoming req see (Count)
board.memory.mem_ctrl.wrQLenPdf::21                44                       # What write queue length does an incoming req see (Count)
board.memory.mem_ctrl.wrQLenPdf::22                44                       # What write queue length does an incoming req see (Count)
board.memory.mem_ctrl.wrQLenPdf::23                47                       # What write queue length does an incoming req see (Count)
board.memory.mem_ctrl.wrQLenPdf::24                46                       # What write queue length does an incoming req see (Count)
board.memory.mem_ctrl.wrQLenPdf::25                46                       # What write queue length does an incoming req see (Count)
[...]
board.processor.switch2.core.executeStats0.numIntRegReads     44982116                       # Number of times the integer registers were read (Count)
board.processor.switch2.core.executeStats0.numIntRegWrites     19824763                       # Number of times the integer registers were written (Count)
board.processor.switch2.core.executeStats0.numMemRefs     17061044                       # Number of memory refs (Count)
board.processor.switch2.core.executeStats0.numMiscRegReads     22264492                       # Number of times the Misc registers were read (Count)
board.processor.switch2.core.executeStats0.numVecAluAccesses            0                       # Number of vector alu accesses (Count)
board.processor.switch2.core.executeStats0.numDiscardedOps            0                       # Number of ops (including micro ops) which were discarded before commit (Count)
board.processor.switch2.core.fetch.predictedBranches      1892580                       # Number of branches that fetch has predicted taken (Count)
board.processor.switch2.core.fetch.cycles     42809002                       # Number of cycles fetch has run and was not squashing or blocked (Cycle)
board.processor.switch2.core.fetch.squashCycles       132258                       # Number of cycles fetch has spent squashing (Cycle)
board.processor.switch2.core.fetch.cacheLines      5015021                       # Number of cache lines fetched (Count)
board.processor.switch2.core.fetch.icacheSquashes            1                       # Number of outstanding Icache misses that were squashed (Count)
board.processor.switch2.core.fetch.nisnDist::samples     42932772                       # Number of instructions fetched each cycle (Total) (Count)
board.processor.switch2.core.fetch.nisnDist::mean     1.848053                       # Number of instructions fetched each cycle (Total) (Count)
board.processor.switch2.core.fetch.nisnDist::stdev     0.460599                       # Number of instructions fetched each cycle (Total) (Count)
board.processor.switch2.core.fetch.nisnDist::underflows            0      0.00%      0.00% # Number of instructions fetched each cycle (Total) (Count)
board.processor.switch2.core.fetch.nisnDist::0      1787990      4.16%      4.16% # Number of instructions fetched each cycle (Total) (Count)
board.processor.switch2.core.fetch.nisnDist::1      2947524      6.87%     11.03% # Number of instructions fetched each cycle (Total) (Count)
board.processor.switch2.core.fetch.nisnDist::2     38197258     88.97%    100.00% # Number of instructions fetched each cycle (Total) (Count)
board.processor.switch2.core.fetch.nisnDist::overflows            0      0.00%    100.00% # Number of instructions fetched each cycle (Total) (Count)
board.processor.switch2.core.fetch.nisnDist::min_value            0                       # Number of instructions fetched each cycle (Total) (Count)
board.processor.switch2.core.fetch.nisnDist::max_value            2                       # Number of instructions fetched each cycle (Total) (Count)
board.processor.switch2.core.fetch.nisnDist::total     42932772                       # Number of instructions fetched each cycle (Total) (Count)
board.processor.switch2.core.fetchStats0.numInsts     54327484                       # Number of instructions fetched (thread level) (Count)
board.processor.switch2.core.fetchStats0.numOps            0                       # Number of ops (including micro ops) fetched (thread level) (Count)
board.processor.switch2.core.fetchStats0.fetchRate     1.265408                       # Number of inst fetches per cycle ((Count/Cycle))
board.processor.switch2.core.fetchStats0.numBranches      2472656                       # Number of branches fetched (Count)
board.processor.switch2.core.fetchStats0.branchRate     0.057594                       # Number of branch fetches per cycle (Ratio)
board.processor.switch2.core.fetchStats0.icacheStallCycles        57641                       # ICache total stall cycles (Cycle)
board.processor.switch2.core.fetchStats0.numFetchSuspends            0                       # Number of times Execute suspended instruction fetching (Count)
board.processor.switch2.core.iew.idleCycles            0                       # Number of cycles IEW is idle (Cycle)
board.processor.switch2.core.iew.squashCycles        66111                       # Number of cycles IEW is squashing (Cycle)
board.processor.switch2.core.iew.blockCycles        57220                       # Number of cycles IEW is blocking (Cycle)
board.processor.switch2.core.iew.unblockCycles        17756                       # Number of cycles IEW is unblocking (Cycle)
board.processor.switch2.core.iew.dispatchedInsts     78799554                       # Number of instructions dispatched to IQ (Count)
board.processor.switch2.core.iew.dispSquashedInsts       107829                       # Number of squashed instructions skipped by dispatch (Count)
board.processor.switch2.core.iew.dispLoadInsts     13093569                       # Number of dispatched load instructions (Count)
board.processor.switch2.core.iew.dispStoreInsts      4001623                       # Number of dispatched store instructions (Count)
board.processor.switch2.core.iew.dispNonSpecInsts            0                       # Number of dispatched non-speculative instructions (Count)
board.processor.switch2.core.iew.iqFullEvents          206                       # Number of times the IQ has become full, causing a stall (Count)
board.processor.switch2.core.iew.lsqFullEvents        17295                       # Number of times the LSQ has become full, causing a stall (Count)
board.processor.switch2.core.iew.memOrderViolationEvents          353                       # Number of memory order violations (Count)
board.processor.switch2.core.iew.predictedTakenIncorrect        36593                       # Number of branches that were predicted taken incorrectly (Count)
board.processor.switch2.core.iew.predictedNotTakenIncorrect        29384                       # Number of branches that were predicted not taken incorrectly (Count)
board.processor.switch2.core.iew.branchMispredicts        65977                       # Number of branch mispredicts detected at execute (Count)
board.processor.switch2.core.iew.instsToCommit     78559238                       # Cumulative count of insts sent to commit (Count)
board.processor.switch2.core.iew.writebackCount     78558859                       # Cumulative count of insts written-back (Count)
board.processor.switch2.core.iew.producerInst     44172046                       # Number of instructions producing a value (Count)
board.processor.switch2.core.iew.consumerInst     69363753                       # Number of instructions consuming a value (Count)
board.processor.switch2.core.iew.wbRate      1.829811                       # Insts written-back per cycle ((Count/Cycle))
board.processor.switch2.core.iew.wbFanout     0.636817                       # Average fanout of values written-back ((Count/Count))
board.processor.switch2.core.lsq0.forwLoads       279501                       # Number of loads that had data forwarded from stores (Count)
board.processor.switch2.core.lsq0.squashedLoads        68906                       # Number of loads squashed (Count)
board.processor.switch2.core.lsq0.ignoredResponses           11                       # Number of memory responses ignored because the instruction is squashed (Count)
board.processor.switch2.core.lsq0.memOrderViolation          353                       # Number of memory ordering violations (Count)
board.processor.switch2.core.lsq0.squashedStores        11635                       # Number of stores squashed (Count)
board.processor.switch2.core.lsq0.rescheduledLoads            3                       # Number of loads that were rescheduled (Count)
board.processor.switch2.core.lsq0.blockedByCache            0                       # Number of times an access to memory failed due to the cache being blocked (Count)
board.processor.switch2.core.lsq0.loadToUse::samples     13024662                       # Distribution of cycle latency between the first time a load is issued and its completion (Unspecified)
board.processor.switch2.core.lsq0.loadToUse::mean     2.516945                       # Distribution of cycle latency between the first time a load is issued and its completion (Unspecified)
board.processor.switch2.core.lsq0.loadToUse::stdev     3.206522                       # Distribution of cycle latency between the first time a load is issued and its completion (Unspecified)
board.processor.switch2.core.lsq0.loadToUse::0-9     12805644     98.32%     98.32% # Distribution of cycle latency between the first time a load is issued and its completion (Unspecified)
board.processor.switch2.core.lsq0.loadToUse::10-19       216422      1.66%     99.98% # Distribution of cycle latency between the first time a load is issued and its completion (Unspecified)
board.processor.switch2.core.lsq0.loadToUse::20-29           10      0.00%     99.98% # Distribution of cycle latency between the first time a load is issued and its completion (Unspecified)
board.processor.switch2.core.lsq0.loadToUse::30-39           22      0.00%     99.98% # Distribution of cycle latency between the first time a load is issued and its completion (Unspecified)
board.processor.switch2.core.lsq0.loadToUse::40-49           41      0.00%     99.98% # Distribution of cycle latency between the first time a load is issued and its completion (Unspecified)
board.processor.switch2.core.lsq0.loadToUse::50-59           52      0.00%     99.98% # Distribution of cycle latency between the first time a load is issued and its completion (Unspecified)
board.processor.switch2.core.lsq0.loadToUse::60-69           30      0.00%     99.98% # Distribution of cycle latency between the first time a load is issued and its completion (Unspecified)
board.processor.switch2.core.lsq0.loadToUse::70-79            5      0.00%     99.98% # Distribution of cycle latency between the first time a load is issued and its completion (Unspecified)
board.processor.switch2.core.lsq0.loadToUse::80-89           13      0.00%     99.98% # Distribution of cycle latency between the first time a load is issued and its completion (Unspecified)
board.processor.switch2.core.lsq0.loadToUse::90-99            7      0.00%     99.98% # Distribution of cycle latency between the first time a load is issued and its completion (Unspecified)
board.processor.switch2.core.lsq0.loadToUse::100-109            9      0.00%     99.98% # Distribution of cycle latency between the first time a load is issued and its completion (Unspecified)
board.processor.switch2.core.lsq0.loadToUse::110-119            8      0.00%     99.98% # Distribution of cycle latency between the first time a load is issued and its completion (Unspecified)
board.processor.switch2.core.lsq0.loadToUse::120-129           11      0.00%     99.98% # Distribution of cycle latency between the first time a load is issued and its completion (Unspecified)
board.processor.switch2.core.lsq0.loadToUse::130-139          123      0.00%     99.98% # Distribution of cycle latency between the first time a load is issued and its completion (Unspecified)
board.processor.switch2.core.lsq0.loadToUse::140-149         1019      0.01%     99.99% # Distribution of cycle latency between the first time a load is issued and its completion (Unspecified)
board.processor.switch2.core.lsq0.loadToUse::150-159           25      0.00%     99.99% # Distribution of cycle latency between the first time a load is issued and its completion (Unspecified)
board.processor.switch2.core.lsq0.loadToUse::160-169           40      0.00%     99.99% # Distribution of cycle latency between the first time a load is issued and its completion (Unspecified)
board.processor.switch2.core.lsq0.loadToUse::170-179           36      0.00%     99.99% # Distribution of cycle latency between the first time a load is issued and its completion (Unspecified)
board.processor.switch2.core.lsq0.loadToUse::180-189          947      0.01%    100.00% # Distribution of cycle latency between the first time a load is issued and its completion (Unspecified)
board.processor.switch2.core.lsq0.loadToUse::190-199           15      0.00%    100.00% # Distribution of cycle latency between the first time a load is issued and its completion (Unspecified)
board.processor.switch2.core.lsq0.loadToUse::200-209           10      0.00%    100.00% # Distribution of cycle latency between the first time a load is issued and its completion (Unspecified)
board.processor.switch2.core.lsq0.loadToUse::210-219            4      0.00%    100.00% # Distribution of cycle latency between the first time a load is issued and its completion (Unspecified)
board.processor.switch2.core.lsq0.loadToUse::220-229           57      0.00%    100.00% # Distribution of cycle latency between the first time a load is issued and its completion (Unspecified)
board.processor.switch2.core.lsq0.loadToUse::230-239            4      0.00%    100.00% # Distribution of cycle latency between the first time a load is issued and its completion (Unspecified)
board.processor.switch2.core.lsq0.loadToUse::240-249            1      0.00%    100.00% # Distribution of cycle latency between the first time a load is issued and its completion (Unspecified)
board.processor.switch2.core.lsq0.loadToUse::250-259            1      0.00%    100.00% # Distribution of cycle latency between the first time a load is issued and its completion (Unspecified)
board.processor.switch2.core.lsq0.loadToUse::280-289            2      0.00%    100.00% # Distribution of cycle latency between the first time a load is issued and its completion (Unspecified)
board.processor.switch2.core.lsq0.loadToUse::290-299            5      0.00%    100.00% # Distribution of cycle latency between the first time a load is issued and its completion (Unspecified)
board.processor.switch2.core.lsq0.loadToUse::overflows           99      0.00%    100.00% # Distribution of cycle latency between the first time a load is issued and its completion (Unspecified)
board.processor.switch2.core.lsq0.loadToUse::min_value            2                       # Distribution of cycle latency between the first time a load is issued and its completion (Unspecified)
board.processor.switch2.core.lsq0.loadToUse::max_value         1000                       # Distribution of cycle latency between the first time a load is issued and its completion (Unspecified)
board.processor.switch2.core.lsq0.loadToUse::total     13024662                       # Distribution of cycle latency between the first time a load is issued and its completion (Unspecified)
board.processor.switch2.core.mmu.dtb.rdAccesses     13061189                       # TLB accesses on read requests (Count)
board.processor.switch2.core.mmu.dtb.wrAccesses      3999855                       # TLB accesses on write requests (Count)
board.processor.switch2.core.mmu.dtb.rdMisses          855                       # TLB misses on read requests (Count)
board.processor.switch2.core.mmu.dtb.wrMisses           10                       # TLB misses on write requests (Count)
board.processor.switch2.core.mmu.dtb.walker.power_state.pwrStateResidencyTicks::UNDEFINED 228478933140220                       # Cumulative time (in ticks) in various power states (Tick)
board.processor.switch2.core.mmu.itb.rdAccesses            0                       # TLB accesses on read requests (Count)
board.processor.switch2.core.mmu.itb.wrAccesses      5015021                       # TLB accesses on write requests (Count)
board.processor.switch2.core.mmu.itb.rdMisses            0                       # TLB misses on read requests (Count)
board.processor.switch2.core.mmu.itb.wrMisses            6                       # TLB misses on write requests (Count)
board.processor.switch2.core.mmu.itb.walker.power_state.pwrStateResidencyTicks::UNDEFINED 228478933140220                       # Cumulative time (in ticks) in various power states (Tick)
board.processor.switch2.core.power_state.pwrStateResidencyTicks::OFF 228478933140220                       # Cumulative time (in ticks) in various power states (Tick)
board.processor.switch2.core.rename.squashCycles        66111                       # Number of cycles rename is squashing (Cycle)
board.processor.switch2.core.rename.idleCycles      1702333                       # Number of cycles rename is idle (Cycle)
board.processor.switch2.core.rename.blockCycles        98785                       # Number of cycles rename is blocking (Cycle)
board.processor.switch2.core.rename.serializeStallCycles            0                       # count of cycles rename stalled for serializing inst (Cycle)
board.processor.switch2.core.rename.runCycles     40980835                       # Number of cycles rename is running (Cycle)
board.processor.switch2.core.rename.unblockCycles        84663                       # Number of cycles rename is unblocking (Cycle)
board.processor.switch2.core.rename.renamedInsts     79049316                       # Number of instructions processed by rename (Count)
board.processor.switch2.core.rename.ROBFullEvents          305                       # Number of times rename has blocked due to ROB full (Count)
board.processor.switch2.core.rename.IQFullEvents          863                       # Number of times rename has blocked due to IQ full (Count)
board.processor.switch2.core.rename.LQFullEvents        81032                       # Number of times rename has blocked due to LQ full (Count)
board.processor.switch2.core.rename.SQFullEvents          379                       # Number of times rename has blocked due to SQ full (Count)
board.processor.switch2.core.rename.renamedOperands    103940928                       # Number of destination operands rename has renamed (Count)
board.processor.switch2.core.rename.lookups    222610566                       # Number of register rename lookups that rename has made (Count)
board.processor.switch2.core.rename.intLookups     45481659                       # Number of integer rename lookups (Count)
board.processor.switch2.core.rename.fpLookups     91747779                       # Number of floating rename lookups (Count)
board.processor.switch2.core.rename.committedMaps    102510619                       # Number of HB maps that are committed (Count)
board.processor.switch2.core.rename.undoneMaps      1430282                       # Number of HB maps that are undone due to squashing (Count)
board.processor.switch2.core.rename.serializing            0                       # count of serializing insts renamed (Count)
board.processor.switch2.core.rename.tempSerializing            0                       # count of temporary serializing insts renamed (Count)
board.processor.switch2.core.rename.skidInsts        14154                       # count of insts added to the skid buffer (Count)
board.processor.switch2.core.rob.reads       83767488                       # The number of ROB reads (Count)
board.processor.switch2.core.rob.writes     157678998                       # The number of ROB writes (Count)
board.processor.switch2.core.thread_0.numInsts     53732116                       # Number of Instructions committed (Count)
board.processor.switch2.core.thread_0.numOps     78321442                       # Number of Ops committed (Count)
board.processor.switch2.core.thread_0.numMemRefs            0                       # Number of Memory References (Count)
board.workload.inst.arm                             0                       # number of arm instructions executed (Count)
board.workload.inst.quiesce                         0                       # number of quiesce instructions executed (Count)

---------- End Simulation Statistics   ----------
